11

C -2.654568434 -1.766195238 0.779193135
N -1.133368327 -0.126840024 -0.866310454
C -1.709370984 2.312002850 -0.807485094
H -3.154476035 2.945151034 0.472766069
H -0.724269020 3.585185474 -2.055230776
C 0.568551071 -1.290996883 -2.291261292
H 1.665458587 -0.192171711 -3.609474408
H 0.798622487 -3.300533175 -2.096894078
H -4.317290017 -2.398420045 -0.254232792
H -3.226327938 -0.709133089 2.444714820
H -1.526743335 -3.385770046 1.348099342

