13

C -3.525020639 -0.263816255 0.071979763
C -0.800046150 -1.028531480 -0.439971989
C 1.060304220 1.007789506 0.397814448
C 3.715300091 0.341621590 -0.086834144
O 5.855624592 1.522162507 0.294197476
N 5.121086593 -1.342913499 -0.944573405
H -4.832444533 -1.743197252 -0.517470734
H -3.838997670 0.086112514 2.082334665
H -4.023145151 1.458992402 -0.950700691
H -0.534449036 -1.402475115 -2.453559967
H 0.709531821 2.804202429 -0.565562318
H 0.898255065 1.398880006 2.422502526
H -0.362585909 -2.790998383 0.543681633

