12

N 6.230215572 -0.672334849 1.745102002
C 4.304749889 -0.400672753 0.756854248
C 1.922813906 -0.077146274 -0.405424337
C -2.588227444 -2.185389934 -1.041399778
N -3.420393835 -0.308173588 0.284721974
C -2.103154363 1.759002449 0.709549433
N 0.414089657 1.795231598 0.609132977
H 1.824194315 -0.430948471 -2.400766480
H -1.475940259 -1.972955087 -2.737171859
H -3.406701409 -4.035391823 -0.692659571
H -3.019351319 3.402025981 1.508846079
H 1.261865772 3.110977336 1.706310497

