8

O -2.889283322 -0.889681113 2.258342433
C -1.854170228 0.943245154 1.445167695
C 0.078233490 0.774840397 -0.699924302
O 0.250444062 2.452721401 -2.214874877
C 1.792070124 -1.545659021 -0.900255151
O 2.572262168 -2.608217420 0.931154800
H -2.317417691 2.895094532 2.033118108
H 2.367861397 -2.022343929 -2.852728687

