8

O -4.235953124 0.383506160 1.929895976
C -2.260882395 1.421732483 1.512379470
C -0.269361146 0.280899852 -0.083238448
O -0.124174603 0.857128691 -2.341008805
C 2.820382547 -2.069649519 -0.899290219
O 4.059730097 -3.443818483 0.189520898
H -1.716471101 3.234015307 2.418549729
H 1.692926304 -0.554845303 -2.729346522

