15

C -2.396404274 0.251512324 -3.192456865
C 0.011599668 1.006889467 -1.905077882
C -1.275090057 -0.593398343 2.609723778
C 0.567391573 0.593824268 0.790980831
O -0.079835808 3.034100877 -0.152242762
C 3.204032477 0.303795906 1.509225499
C 5.358876973 0.019062234 2.136339031
H -3.990655354 0.209134289 -1.893858786
H -2.189283507 -1.611299906 -4.055017309
H -2.831285076 1.601753312 -4.689797517
H 1.656514532 1.084944926 -3.139402975
H -1.030991771 0.237307366 4.480134199
H -3.216129276 -0.278915034 2.010480814
H -0.928544484 -2.620565968 2.755461346
H 7.279821770 -0.216762755 2.684378315

