12

C 3.254987941 -0.532317727 0.082871124
C 0.471023232 -0.234187560 0.072359484
N -1.207036805 -1.902593648 0.796596965
N -3.650579825 -1.142614700 0.587164987
C -3.530652967 1.229429228 -0.356622028
O -5.171461022 2.735879966 -0.892199381
N -0.871648401 1.764300618 -0.667555410
H 4.015279789 -0.354048296 -1.825398260
H 3.772965537 -2.384736803 0.815782447
H 4.137767037 0.905474953 1.267755028
H -0.836032091 -3.638583900 1.469949658
H -0.197023091 3.403390476 -1.344678258

