12

C 3.393972667 -0.408472050 0.136510829
C 0.599031390 -0.258592334 0.281228947
N -0.847285788 -1.945731446 1.384121774
N -3.486845733 -1.158615616 1.048390933
C -3.432879766 1.043876075 -0.314410233
O -5.137238800 2.347185034 -1.085082007
N -0.822049667 1.620933238 -0.617043730
H 4.028215721 -0.335854864 -1.824562604
H 4.024054506 -2.170439422 0.986131695
H 4.262146240 1.163761642 1.150888866
H -2.281029446 -3.195832389 0.311142329
H -0.209114258 3.226093499 -1.429925202

