13

C -2.527325766 -0.387558318 2.406375395
H -0.795682035 0.226619132 3.305629464
H -4.010938786 -0.954590182 3.694197898
C -3.245584966 0.878878872 -0.025085906
H -5.230855511 1.176373259 -0.412513569
H -2.023018297 2.367770312 -0.709162738
C -2.274580585 -1.775979956 -0.065620834
C 0.269944656 -2.422216648 -1.048242061
C 1.662999052 -1.012963236 -2.577651951
H 3.524075265 -1.618268308 -3.176331851
H 0.995271337 0.786417823 -3.295215448
H 1.018126100 -4.226942646 -0.407797909
H -3.679470071 -3.237434690 -0.376494123

