17

C -2.817626438 0.832014892 1.874123166
C -3.847607792 0.224666175 -0.614395203
C -1.875662783 -1.570388412 0.549525346
C 0.623921294 -1.590488786 -0.440585526
C 2.004682908 0.475110142 -1.473123812
C 4.039190645 0.565033780 1.004511077
O 2.696772727 0.212487363 3.052291098
H -1.416485696 2.296454637 2.103244050
H -3.939171996 0.453000214 3.538207148
H -5.724370546 -0.572118137 -0.756373955
H -3.234363375 1.302841120 -2.239364140
H -2.573491341 -3.336592419 1.299080470
H 1.569569896 -3.413351109 -0.478708427
H 3.088124633 0.025540669 -3.161492626
H 0.985671301 2.252234725 -1.621294195
H 5.328938098 -0.984522688 0.421984366
H 5.127210458 2.356330383 0.859828202

