15

C 4.919339847 0.905337815 2.437473201
C 3.109806178 1.043676426 0.277628755
C -3.128865729 -2.449847562 -2.108650839
C -2.880219137 -0.681589348 -0.346788706
O -4.134992957 -0.632350266 1.888639551
C -1.167935858 1.546290303 -0.620703997
O 0.860273668 1.395973229 1.192170367
H 4.075294543 1.129530576 4.311762058
H 6.378346403 2.333959200 2.120395771
H 5.896224092 -0.911356291 2.300883248
H -2.022025359 -2.358772249 -3.820218064
H -4.417332477 -4.026256925 -1.883795106
H -5.140752368 -2.133489211 2.056755559
H -0.337518333 1.620701614 -2.499801678
H -2.193104703 3.283964623 -0.195125655

