15

C 3.802183311 -0.042591970 1.677532728
C 1.091171782 0.702106747 1.605328447
C -0.931958274 -1.916297261 -1.655738271
C -2.025530404 -0.416861432 0.159145572
O -3.750665787 -1.277699655 1.845792657
C -1.990563403 2.436826706 -0.163046742
O 0.674587138 2.810260777 0.263790517
H 4.894496147 0.547289914 0.025943502
H 3.960945042 -2.076516179 1.954854061
H 4.597573837 0.869252021 3.356348938
H 0.004682552 -1.079339488 -3.263580563
H -0.815394902 -3.943854359 -1.408045820
H -3.996419094 -3.054368700 1.568864972
H -2.481339602 3.093510239 -2.051681890
H -3.108660116 3.391774708 1.280188047

