14

C 2.765614448 -0.565823478 -1.903977948
O 0.163168799 -0.043619830 -2.162190900
C -1.399223861 -1.277112933 -0.352945547
C -1.263582324 -0.089265333 2.271472704
C -1.814008087 2.705056757 2.592685081
O -1.500338306 3.981475310 0.515059066
H 3.109845900 -2.605945346 -1.977896834
H 3.540893696 0.184500632 -0.137410188
H 3.721777827 0.336747891 -3.485582338
H -0.923442506 -3.293339932 -0.276043010
H 0.615042340 -0.318453755 3.127562461
H -2.524973397 -1.111138684 3.547983872
H -3.316250613 -1.118626138 -1.100597206
H -0.929759029 2.948535968 -0.923378180

