15

N 5.543681265 -0.169161536 0.006015622
C 0.705040206 0.601006701 1.248771048
C 3.339518678 0.876337095 0.685201106
N 2.362672417 2.954856233 1.290845724
C -1.271162167 0.342954867 -0.746774959
C -3.993801710 0.681972886 -0.041397361
C -3.018358873 -1.894010720 -0.698841527
H 6.999769347 0.966002654 -0.439320260
H 5.558851665 -1.939149379 -0.665275266
H 0.145015561 -0.126200030 3.097746116
H -0.705477961 1.037773261 -2.589572060
H -4.407711088 1.075071032 1.924092608
H -5.227379605 1.624810408 -1.370933243
H -3.583641871 -2.722097627 -2.480811291
H -2.783589315 -3.243192062 0.822991790

