11

C -1.868770781 1.467542808 -0.082024696
C 0.406512253 -0.205689564 -0.655775424
C 0.546537292 -2.544467283 1.042868568
O -1.181466014 -3.242352684 2.314635598
C 2.807666315 1.160610014 -0.515919553
N 4.697489062 2.210945513 -0.364232068
H -1.735181412 2.243676401 1.820054341
H -3.591513166 0.349806674 -0.197051513
H -1.978509426 3.023001873 -1.424920338
H 0.272353886 -0.954601350 -2.586662316
H 2.361077734 -3.582989991 0.978476604

