13

C 2.821848408 -0.334027064 0.426149342
C 0.366048114 0.272276105 -0.910582693
C -1.703474774 -1.628759123 -0.417119342
C -2.189353445 3.656061788 1.062485474
O -0.266085514 2.905308880 -0.207313463
H 4.223240937 1.130369067 0.063349931
H 2.523613531 -0.467931337 2.463677674
H 3.569900311 -2.134825530 -0.243710004
H 0.693114428 0.430985170 -2.941528316
H -3.475928483 -1.108559208 -1.331125879
H -1.090865192 -3.433042396 -1.204596432
H -2.051338866 -1.909171576 1.595882613
H -3.375830862 1.969871847 1.541140573

