14

C 3.592358743 -0.395979278 0.628788359
C 5.385344080 -0.550389064 2.275408928
C 0.800222782 -0.043762240 0.925558093
C -0.518085387 2.089976471 -0.571075103
C -2.782585285 0.294082487 -0.952936199
C -1.007576931 -1.941910723 -0.363035267
H 4.423711947 -0.571021170 -1.265479666
H 0.344772538 0.115257760 2.929465457
H -0.825052158 3.877262716 0.402986893
H 0.459168035 2.460705928 -2.349553617
H -4.208270545 0.545689410 0.514393334
H -3.714317207 0.312131355 -2.787906186
H -0.170536992 -2.714813432 -2.082706185
H -1.721038872 -3.495628594 0.783406752

