15

C 2.359445540 2.222801447 0.957667582
C 2.685742244 -0.390271153 -0.192696242
C 0.766699400 -2.385870827 0.462795326
O -1.074850123 -1.923383243 2.313612935
C -2.813953170 -0.143548491 1.318991872
C -1.310759261 1.296367542 -0.655401391
C 0.395029577 -0.750420581 -1.801223542
H -0.109304121 2.637911575 0.801497780
H 2.953213626 3.536747448 -0.557102127
H 4.569316800 -0.962163807 -0.755706712
H 1.276629107 -4.357315456 0.274934837
H -3.501902787 1.031426730 2.866920946
H -4.423075034 -1.106826481 0.423956579
H -2.317984268 2.573966852 -1.907642051
H 0.220868865 -1.388604261 -3.736186365

