10

N -3.802317482 -0.227900366 0.323225503
C -1.247276936 -0.526712251 0.321963865
N -0.123195082 -2.553589482 1.164124129
O 2.462622829 -1.938726440 0.893674426
C 2.508615455 0.335651076 -0.082271759
O 4.756263248 1.304876903 -0.516783347
N 0.330016649 1.359440458 -0.502597872
H -4.471148835 1.046544746 -0.913381302
H -4.826091727 -1.816515678 0.509203750
H 4.515552958 2.968750614 -1.212927138

