10

N 3.944909091 -0.086822125 0.690479734
C 1.696518560 0.400474710 0.886041935
C -0.660757271 -0.861649577 0.154627426
C -2.116317723 1.361792222 1.167998484
O 0.244725070 2.334453779 2.099229496
H 2.902496779 -2.217958305 -1.642575119
H -1.102161446 -2.803116762 0.650861437
H 1.525623692 -2.443726493 -2.317120550
H -3.399448451 0.962441049 2.733986461
H -3.013102430 2.591333001 -0.223741494

