15

C -2.223388244 3.201039491 -1.973756727
C -0.128695773 -1.613042346 -0.559321195
C -2.113536103 -2.046624245 1.511447949
C 1.183482408 0.858491429 -0.359079635
O 0.029824924 2.925931461 -1.060441603
C 3.650537911 1.185359246 0.568835078
C 5.767875368 1.364144308 1.382817410
H -3.465042243 1.601750099 -2.209217661
H -1.022136874 -1.738069008 -2.433085181
H -2.698290177 5.110831238 -2.487413994
H 1.292060157 -3.102406275 -0.481106338
H -3.475047530 -0.500702514 1.616683509
H -3.161108142 -3.789236174 1.168522070
H -1.197399958 -2.194045673 3.351132047
H 7.637555070 1.541083711 2.100038885

