15

C -4.108752428 2.020165377 -3.260739813
C -0.165597475 -0.816154742 -0.849210757
C -1.412439074 -1.963721752 1.484596056
C 1.446774340 1.441870349 -0.215743474
O 0.939611362 3.575299316 -0.833576940
C 3.712897569 0.900324523 1.266796465
C 5.562698297 0.412741206 2.476752727
H -4.411954676 3.024761794 -1.448761897
H -1.634057197 -0.249825025 -2.235063199
H -2.913684581 3.383526582 -4.303634592
H 1.014400675 -2.225733678 -1.795474598
H -2.607151275 -0.579328292 2.436959063
H -2.598569839 -3.554732784 0.936781573
H -0.002333509 -2.637664947 2.829691111
H 7.215782277 0.012872229 3.554252604

