14

C -3.249650560 0.452824961 0.858823870
C -0.854267343 -0.707556944 -0.039567860
C -0.218957105 -3.109823280 -0.198302342
O 2.283981387 -3.402904968 -1.142215779
C 3.373670697 -1.241426797 -1.620378244
C 1.381679171 0.754999501 -1.033809977
N 2.200316465 2.816209295 0.585190998
H -4.552805979 -0.958491484 1.600862873
H -4.188232286 1.459983828 -0.679740459
H -2.853091382 1.842872368 2.329927318
H -1.180089065 -4.853951109 0.234928616
H 0.886185800 1.545498149 -2.893600213
H 3.593647158 3.799251760 -0.279823709
H 2.952335867 2.109131359 2.197429322

