13

O 2.421281309 0.735455972 -0.991806278
C 3.145685501 -1.394699781 0.125596565
N 1.739483827 -2.872050059 1.357720051
C -0.085276858 1.657337357 -0.965666774
C -1.858823698 1.533145520 1.217340953
C -2.410880464 0.086793439 -1.186778582
H 5.167856294 -1.650469053 -0.201633456
H 2.759891204 -4.353778512 2.012095529
H -0.053614100 3.404884929 -2.023160952
H -1.328336246 0.393644616 2.822846996
H -2.924756902 3.226266938 1.641510863
H -3.865149401 0.758007397 -2.458381319
H -2.217339363 -1.939086092 -1.053457667

