12

C -1.846319456 0.726468170 -0.086483165
C -2.019687541 -2.196956683 0.073083797
C 0.563250540 -1.520578293 0.218486109
C 2.964657997 -1.296037973 0.476758229
C 3.828554836 1.228785304 0.603386018
O 2.404466299 2.928687740 1.483803996
H -2.886905518 1.637264289 1.435435775
H 0.406993774 2.032168086 0.942818927
H -2.263657609 1.481793648 -1.943370952
H -2.640857507 -3.128403143 -1.646349128
H -2.906089016 -2.959040937 1.759884819
H 5.673378762 1.810252577 -0.110239611

