14

O 2.211359155 -1.792345816 -2.971012465
C 1.603539216 0.247557505 -1.687604836
C -1.976145700 -0.086985019 -0.930078469
C -1.792164195 -0.306630438 1.922707666
O 0.706401489 -1.016295333 2.559546900
C 2.343982610 0.462400544 1.097453061
H -0.216145287 -1.384490441 -2.242683255
H 1.598340806 2.067545895 -2.704021829
H -3.038908719 -1.659522088 -1.791694900
H -2.741436819 1.662265706 -1.680193254
H -3.036801939 -1.747401269 2.703989005
H -2.257061293 1.511393203 2.809729877
H 2.283867228 2.452276370 1.700574574
H 4.255384970 -0.277947154 1.303333374

