13

C -3.135965241 1.323498755 -0.841480568
C -1.352193887 -0.781478570 -0.185391997
O 0.348995188 -1.362606260 -2.208231828
C 2.652505760 -0.876738190 -1.258856516
N 4.712305913 -1.134859453 -2.367898417
C 1.914319285 -0.021264861 1.355441722
N 2.347515529 0.748278312 3.464483017
H -4.322596954 0.813683188 -2.454034080
H -4.384515134 1.726867732 0.751801668
H -2.111019290 3.048501176 -1.321741537
H -2.280951097 -2.512133842 0.445905502
H -0.026920075 0.191859188 2.565841408
H 6.178512987 -0.637719110 -1.237540953

