17

O 4.133964983 -0.757297351 2.598826767
C 3.311775722 -1.331117148 0.114578309
C 0.644428904 -0.538201125 -0.424007620
C -0.352998761 2.128346075 -0.369814036
C -3.206056563 1.670074678 0.416464986
O -3.486671973 -0.925059432 0.932297064
C -1.157141308 -2.083296460 -1.640875593
H 4.276915508 1.040374280 2.762095324
H 4.626854803 -0.507399382 -1.264280691
H 3.459206448 -3.382260334 -0.072126651
H -1.081615134 -1.234782936 1.351707321
H 0.632990732 3.304144347 1.011561173
H -0.270897588 3.097211702 -2.191864986
H -4.488241294 2.241587743 -1.101683950
H -3.688229916 2.755995742 2.103261076
H -2.428981603 -1.425033608 -3.114317408
H -0.970890714 -4.125687832 -1.526744450

