9

O -0.210390806 -0.526455400 1.268487940
C -1.098413061 1.544900202 -0.172531258
C -3.958686952 1.631176083 -0.348150461
H -4.688373231 -0.127812741 -1.138703798
H -4.569954242 3.194429891 -1.549131847
H -4.809702530 1.901552579 1.515721772
H -0.272689747 1.306221500 -2.047507182
H -0.371431415 3.331328454 0.592030899
H -0.882095356 -0.390210757 2.945991868

