11

C 0.143514287 0.158463041 -0.137465538
C 1.177144607 2.562947973 -0.817685250
N 2.029538268 4.482480918 -1.369201196
C -2.212556731 -0.072060246 0.642209666
C -4.612479411 1.135208032 1.230079785
H -4.725617106 2.274199163 2.927875649
H -5.766049665 1.796310688 -0.327079920
C -4.237277860 -1.713461448 1.527712878
H -5.147525770 -2.946727765 0.169842650
H -4.109639975 -2.473871291 3.424801848
H 1.385082076 -1.461714685 -0.292391900

