15

N 3.538334950 -1.429328747 -0.002173828
C 1.535795785 0.285988336 0.764260179
C 2.369027207 2.961015927 0.883462761
N 3.077029918 5.010260222 0.945790445
C -0.733335076 0.066600884 -0.954026325
C -3.313324599 0.618601545 0.065791703
C -2.559471066 -2.046718486 -0.537632449
H 5.067316231 -1.255323370 1.131102847
H 4.100814557 -1.051022774 -1.790534797
H 0.955079904 -0.233231113 2.679728588
H -0.366822921 0.622252628 -2.893185418
H -3.464623688 1.151568090 2.036005780
H -4.646114344 1.561762285 -1.162567562
H -3.379111464 -2.940479348 -2.182317957
H -2.180595377 -3.321946058 1.016296033

