15

N 3.273501569 -0.324190283 -1.810458841
C 1.632518469 -0.405023526 0.559739278
C 1.914489417 1.987607645 1.939437865
N 1.948104753 3.866774207 3.027063915
C -0.862771659 -1.091652622 -0.614856259
C -2.956527337 0.838859839 -0.647946194
C -3.127638541 -1.433159109 1.041928051
H 5.057021211 -1.023258615 -1.653188482
H 3.312974054 1.440461540 -2.573821929
H 2.353807825 -1.938660753 1.734355715
H 1.870191761 -1.458371967 -2.801829103
H -2.728174570 2.652051356 0.294651464
H -4.136608162 0.924509635 -2.320511966
H -4.437811288 -2.939691578 0.580585792
H -2.994975270 -1.053750178 3.057915225

