12

N -3.472217514 -1.611905449 1.349691815
C -1.099536579 -1.967632730 1.954617128
N 1.037355292 -2.027489124 2.508140378
C 2.615728647 0.119786130 0.042640876
O 3.698667534 -1.461487672 -1.577239104
C 0.938645599 1.967746794 -0.942413618
N -1.267204249 2.697597271 -0.178412898
H -4.322870152 -3.010192932 0.376651273
H -3.559770227 0.227509230 0.628793329
H 5.197902542 -2.133212290 -0.796209325
H 2.002564412 3.046310303 -2.362713594
H -1.729076482 4.376804749 -0.971634434

