14

C 2.016281556 0.983720707 0.511451711
C 1.631303186 -1.759681352 0.764240356
C -0.608939791 -1.227635897 -1.164401768
O -3.016554411 -1.771726145 -0.153993782
C -2.891116905 0.600809055 1.124095176
C -0.505114609 1.628654508 -0.300811234
H 3.738021100 2.068891285 0.383816037
H 2.651808281 0.175951757 -2.887732462
H 0.705881607 -2.375109120 2.496616129
H 3.185683331 -3.011604444 0.293558390
H 1.371183065 -0.767940459 -3.296962556
H -2.600141241 0.358686875 3.149273486
H -4.562619856 1.742328451 0.748936844
H -0.842128045 3.277034279 -1.467282139

