17

C 2.922407443 1.514781671 -0.245719331
C 1.948065504 -1.710985566 0.037053296
O 0.919317896 -2.362453133 2.159902347
C -1.811463401 -2.138246521 2.237503762
C -2.708093925 0.330732118 1.203665061
C -2.067370339 0.434559265 -1.611231006
C 0.485088747 -0.671314037 -1.977047100
H 1.578301092 3.068657279 -0.424080658
H 3.680402349 1.578109663 1.663920955
H 4.443496964 1.668389892 -1.612571805
H 3.711416439 -2.672006883 -0.387004288
H -2.318387725 -2.480221451 4.200262907
H -1.882472279 2.037491294 2.107274363
H -4.745666458 0.465828601 1.485847375
H -3.422472553 -0.696257931 -2.672813588
H -2.132522200 2.359621152 -2.405851979
H 1.352592109 -0.654998633 -3.831110785

