15

C -2.625357236 1.214345132 -2.127657308
C -0.479403619 -0.163266762 -0.803431480
C -1.410768500 -1.822738414 1.381941635
C 1.479843300 1.691695337 0.156682446
O 1.260681443 3.955289451 0.160362858
C 3.788746621 0.516410201 1.150122336
C 5.729354869 -0.557811946 1.969791647
H -3.638629216 2.433249020 -0.809976150
H -3.959504844 -0.152136654 -2.903649833
H -1.931776575 2.397692822 -3.663762951
H 0.511747888 -1.383554573 -2.154228709
H -2.369373178 -0.676428128 2.805335225
H -2.755148823 -3.215194523 0.675121703
H 0.132011581 -2.836111607 2.299602543
H 5.856479599 1.721737466 2.141872149

