22

C     2.27791  -2.52559   0.29417
C     1.87666  -1.15397   0.14293
N     1.80172   0.03256  -0.00117
C     1.65537   1.32133  -0.29110
C     1.20738   2.25094   0.64866
N     0.80365   3.07968   1.37578
C    -0.72257   0.19105  -1.51379
C    -1.38082   1.08255  -0.52428
O    -1.66419   2.25717  -0.77779
C    -1.75203   0.48369   0.78143
C    -1.56638  -0.82622   1.02716
C    -0.98720  -1.72666  -0.00239
O    -0.92637  -2.94981   0.20016
C    -0.58256  -1.10905  -1.28818
H     1.39481  -3.19912   0.37976
H     2.89372  -2.51447   1.13160
H     2.80465  -2.77776  -0.64305
H     1.88483   1.60151  -1.31984
H    -0.30168   0.68533  -2.38680
H    -2.24174   1.14914   1.49671
H    -1.90773  -1.29793   1.96161
H     0.03306  -1.76642  -1.92648
22

C     2.27094  -2.52084   0.28839
C     1.85602  -1.15341   0.12830
N     1.80914   0.03245   0.00297
C     1.64213   1.31440  -0.29647
C     1.20259   2.24908   0.64475
N     0.80424   3.07791   1.37332
C    -0.70485   0.19709  -1.50310
C    -1.37761   1.08303  -0.52298
O    -1.66622   2.25575  -0.77880
C    -1.75337   0.48303   0.78114
C    -1.56827  -0.82678   1.02753
C    -0.98445  -1.72714   0.00087
O    -0.93004  -2.95030   0.19973
C    -0.55839  -1.10735  -1.27360
H     1.39474  -3.19954   0.37955
H     2.89181  -2.50978   1.12975
H     2.80318  -2.77692  -0.64420
H     1.88371   1.60070  -1.32010
H    -0.29930   0.68543  -2.38521
H    -2.24323   1.14875   1.49606
H    -1.90958  -1.29817   1.96120
H     0.03504  -1.76610  -1.92477
22

C     2.26397  -2.51610   0.28261
C     1.83539  -1.15284   0.11368
N     1.81656   0.03235   0.00710
C     1.62888   1.30746  -0.30185
C     1.19779   2.24723   0.64084
N     0.80484   3.07615   1.37086
C    -0.68714   0.20312  -1.49241
C    -1.37441   1.08350  -0.52168
O    -1.66826   2.25433  -0.77982
C    -1.75471   0.48238   0.78084
C    -1.57017  -0.82734   1.02791
C    -0.98171  -1.72761   0.00413
O    -0.93371  -2.95080   0.19930
C    -0.53422  -1.10565  -1.25901
H     1.39467  -3.19995   0.37933
H     2.88989  -2.50509   1.12789
H     2.80170  -2.77609  -0.64535
H     1.88258   1.59990  -1.32036
H    -0.29692   0.68553  -2.38362
H    -2.24472   1.14837   1.49541
H    -1.91143  -1.29841   1.96079
H     0.03703  -1.76578  -1.92306
22

C     2.25700  -2.51135   0.27683
C     1.81476  -1.15227   0.09906
N     1.82398   0.03224   0.01123
C     1.61563   1.30052  -0.30723
C     1.19300   2.24538   0.63693
N     0.80543   3.07438   1.36840
C    -0.66942   0.20916  -1.48172
C    -1.37120   1.08398  -0.52039
O    -1.67029   2.25290  -0.78083
C    -1.75605   0.48172   0.78055
C    -1.57206  -0.82790   1.02828
C    -0.97896  -1.72808   0.00739
O    -0.93738  -2.95129   0.19887
C    -0.51004  -1.10395  -1.24443
H     1.39460  -3.20037   0.37912
H     2.88798  -2.50040   1.12603
H     2.80022  -2.77525  -0.64649
H     1.88146   1.59909  -1.32062
H    -0.29454   0.68562  -2.38203
H    -2.24621   1.14799   1.49475
H    -1.91328  -1.29866   1.96039
H     0.03901  -1.76547  -1.92135
22

C     2.25003  -2.50660   0.27104
C     1.79412  -1.15170   0.08443
N     1.83140   0.03213   0.01536
C     1.60238   1.29359  -0.31260
C     1.18821   2.24353   0.63302
N     0.80602   3.07262   1.36593
C    -0.65171   0.21520  -1.47103
C    -1.36800   1.08445  -0.51909
O    -1.67233   2.25148  -0.78184
C    -1.75739   0.48106   0.78026
C    -1.57396  -0.82846   1.02865
C    -0.97621  -1.72856   0.01066
O    -0.94105  -2.95179   0.19844
C    -0.48587  -1.10225  -1.22984
H     1.39452  -3.20079   0.37890
H     2.88607  -2.49570   1.12418
H     2.79875  -2.77442  -0.64764
H     1.88034   1.59828  -1.32088
H    -0.29216   0.68572  -2.38044
H    -2.24770   1.14760   1.49410
H    -1.91513  -1.29890   1.95998
H     0.04100  -1.76515  -1.91963
22

C     2.24306  -2.50186   0.26526
C     1.77349  -1.15113   0.06981
N     1.83882   0.03203   0.01949
C     1.58914   1.28665  -0.31798
C     1.18341   2.24168   0.62911
N     0.80662   3.07085   1.36347
C    -0.63399   0.22124  -1.46034
C    -1.36479   1.08493  -0.51780
O    -1.67436   2.25006  -0.78286
C    -1.75873   0.48040   0.77996
C    -1.57585  -0.82902   1.02903
C    -0.97347  -1.72903   0.01392
O    -0.94472  -2.95228   0.19802
C    -0.46170  -1.10055  -1.21525
H     1.39445  -3.20120   0.37869
H     2.88415  -2.49101   1.12232
H     2.79727  -2.77358  -0.64879
H     1.87922   1.59748  -1.32115
H    -0.28978   0.68582  -2.37886
H    -2.24919   1.14722   1.49345
H    -1.91698  -1.29914   1.95957
H     0.04298  -1.76484  -1.91792
22

C     2.23609  -2.49711   0.25948
C     1.75286  -1.15056   0.05519
N     1.84625   0.03192   0.02363
C     1.57589   1.27971  -0.32335
C     1.17862   2.23983   0.62520
N     0.80721   3.06909   1.36101
C    -0.61628   0.22727  -1.44964
C    -1.36158   1.08541  -0.51650
O    -1.67640   2.24864  -0.78387
C    -1.76007   0.47974   0.77967
C    -1.57775  -0.82958   1.02940
C    -0.97072  -1.72951   0.01718
O    -0.94839  -2.95277   0.19759
C    -0.43753  -1.09885  -1.20067
H     1.39438  -3.20162   0.37847
H     2.88224  -2.48632   1.12046
H     2.79579  -2.77274  -0.64994
H     1.87810   1.59667  -1.32141
H    -0.28741   0.68591  -2.37727
H    -2.25068   1.14684   1.49280
H    -1.91883  -1.29939   1.95916
H     0.04496  -1.76452  -1.91621
22

C     2.22913  -2.49236   0.25369
C     1.73222  -1.15000   0.04057
N     1.85367   0.03181   0.02776
C     1.56264   1.27278  -0.32873
C     1.17383   2.23798   0.62129
N     0.80780   3.06732   1.35855
C    -0.59856   0.23331  -1.43895
C    -1.35838   1.08588  -0.51521
O    -1.67843   2.24722  -0.78489
C    -1.76141   0.47908   0.77938
C    -1.57964  -0.83014   1.02977
C    -0.96797  -1.72998   0.02044
O    -0.95206  -2.95327   0.19716
C    -0.41335  -1.09715  -1.18608
H     1.39431  -3.20204   0.37825
H     2.88033  -2.48163   1.11860
H     2.79432  -2.77191  -0.65109
H     1.87698   1.59586  -1.32167
H    -0.28503   0.68601  -2.37568
H    -2.25217   1.14646   1.49215
H    -1.92068  -1.29963   1.95875
H     0.04695  -1.76420  -1.91449
22

C     2.22216  -2.48762   0.24791
C     1.71159  -1.14943   0.02594
N     1.86109   0.03171   0.03189
C     1.54940   1.26584  -0.33411
C     1.16903   2.23613   0.61738
N     0.80840   3.06556   1.35608
C    -0.58085   0.23935  -1.42826
C    -1.35517   1.08636  -0.51391
O    -1.68047   2.24580  -0.78590
C    -1.76275   0.47842   0.77908
C    -1.58154  -0.83070   1.03015
C    -0.96523  -1.73046   0.02370
O    -0.95573  -2.95376   0.19673
C    -0.38918  -1.09545  -1.17150
H     1.39424  -3.20245   0.37804
H     2.87841  -2.47694   1.11675
H     2.79284  -2.77107  -0.65224
H     1.87585   1.59506  -1.32193
H    -0.28265   0.68610  -2.37409
H    -2.25366   1.14607   1.49150
H    -1.92253  -1.29987   1.95834
H     0.04893  -1.76389  -1.91278
22

C     2.21519  -2.48287   0.24213
C     1.69096  -1.14886   0.01132
N     1.86851   0.03160   0.03602
C     1.53615   1.25890  -0.33948
C     1.16424   2.23428   0.61347
N     0.80899   3.06379   1.35362
C    -0.56313   0.24539  -1.41757
C    -1.35197   1.08683  -0.51262
O    -1.68250   2.24437  -0.78692
C    -1.76409   0.47776   0.77879
C    -1.58344  -0.83126   1.03052
C    -0.96248  -1.73093   0.02696
O    -0.95940  -2.95425   0.19631
C    -0.36501  -1.09375  -1.15691
H     1.39416  -3.20287   0.37782
H     2.87650  -2.47225   1.11489
H     2.79136  -2.77024  -0.65338
H     1.87473   1.59425  -1.32219
H    -0.28027   0.68620  -2.37250
H    -2.25515   1.14569   1.49085
H    -1.92438  -1.30012   1.95793
H     0.05092  -1.76357  -1.91107
22

C     2.20822  -2.47813   0.23635
C     1.67032  -1.14829  -0.00330
N     1.87593   0.03149   0.04015
C     1.52290   1.25197  -0.34486
C     1.15945   2.23243   0.60956
N     0.80958   3.06203   1.35116
C    -0.54542   0.25142  -1.40688
C    -1.34876   1.08731  -0.51132
O    -1.68454   2.24295  -0.78793
C    -1.76543   0.47710   0.77850
C    -1.58533  -0.83182   1.03089
C    -0.95973  -1.73140   0.03022
O    -0.96307  -2.95475   0.19588
C    -0.34083  -1.09205  -1.14233
H     1.39409  -3.20329   0.37761
H     2.87459  -2.46756   1.11303
H     2.78989  -2.76940  -0.65453
H     1.87361   1.59345  -1.32245
H    -0.27789   0.68630  -2.37091
H    -2.25664   1.14531   1.49020
H    -1.92623  -1.30036   1.95753
H     0.05290  -1.76326  -1.90935
22

C     2.20125  -2.47338   0.23056
C     1.64969  -1.14772  -0.01793
N     1.88335   0.03139   0.04429
C     1.50965   1.24503  -0.35024
C     1.15465   2.23058   0.60565
N     0.81018   3.06026   1.34870
C    -0.52770   0.25746  -1.39619
C    -1.34555   1.08779  -0.51003
O    -1.68657   2.24153  -0.78894
C    -1.76677   0.47644   0.77821
C    -1.58723  -0.83238   1.03127
C    -0.95699  -1.73188   0.03348
O    -0.96674  -2.95524   0.19545
C    -0.31666  -1.09035  -1.12774
H     1.39402  -3.20370   0.37739
H     2.87267  -2.46286   1.11118
H     2.78841  -2.76856  -0.65568
H     1.87249   1.59264  -1.32271
H    -0.27551   0.68639  -2.36932
H    -2.25813   1.14493   1.48955
H    -1.92808  -1.30060   1.95712
H     0.05488  -1.76294  -1.90764
22

C     2.19428  -2.46863   0.22478
C     1.62906  -1.14716  -0.03255
N     1.89077   0.03128   0.04842
C     1.49641   1.23809  -0.35561
C     1.14986   2.22873   0.60174
N     0.81077   3.05850   1.34623
C    -0.50998   0.26350  -1.38550
C    -1.34235   1.08826  -0.50873
O    -1.68861   2.24011  -0.78996
C    -1.76812   0.47579   0.77791
C    -1.58912  -0.83294   1.03164
C    -0.95424  -1.73235   0.03674
O    -0.97041  -2.95574   0.19502
C    -0.29249  -1.08865  -1.11316
H     1.39395  -3.20412   0.37718
H     2.87076  -2.45817   1.10932
H     2.78693  -2.76773  -0.65683
H     1.87137   1.59183  -1.32297
H    -0.27313   0.68649  -2.36774
H    -2.25962   1.14454   1.48890
H    -1.92993  -1.30085   1.95671
H     0.05687  -1.76262  -1.90593
22

C     2.18731  -2.46389   0.21900
C     1.60842  -1.14659  -0.04717
N     1.89820   0.03118   0.05255
C     1.48316   1.23116  -0.36099
C     1.14507   2.22688   0.59783
N     0.81136   3.05673   1.34377
C    -0.49227   0.26953  -1.37481
C    -1.33914   1.08874  -0.50744
O    -1.69064   2.23869  -0.79097
C    -1.76946   0.47513   0.77762
C    -1.59102  -0.83350   1.03201
C    -0.95149  -1.73283   0.04000
O    -0.97408  -2.95623   0.19460
C    -0.26832  -1.08695  -1.09857
H     1.39388  -3.20454   0.37696
H     2.86885  -2.45348   1.10746
H     2.78546  -2.76689  -0.65798
H     1.87025   1.59103  -1.32323
H    -0.27075   0.68659  -2.36615
H    -2.26111   1.14416   1.48824
H    -1.93178  -1.30109   1.95630
H     0.05885  -1.76231  -1.90421
22

C     2.18034  -2.45914   0.21322
C     1.58779  -1.14602  -0.06179
N     1.90562   0.03107   0.05668
C     1.46991   1.22422  -0.36636
C     1.14027   2.22503   0.59392
N     0.81196   3.05497   1.34131
C    -0.47455   0.27557  -1.36412
C    -1.33594   1.08921  -0.50614
O    -1.69268   2.23727  -0.79199
C    -1.77080   0.47447   0.77733
C    -1.59291  -0.83407   1.03239
C    -0.94875  -1.73330   0.04326
O    -0.97775  -2.95672   0.19417
C    -0.24414  -1.08525  -1.08398
H     1.39380  -3.20495   0.37674
H     2.86694  -2.44879   1.10561
H     2.78398  -2.76606  -0.65913
H     1.86912   1.59022  -1.32349
H    -0.26838   0.68668  -2.36456
H    -2.26260   1.14378   1.48759
H    -1.93363  -1.30134   1.95589
H     0.06084  -1.76199  -1.90250
22

C     2.17337  -2.45439   0.20743
C     1.56715  -1.14545  -0.07642
N     1.91304   0.03096   0.06081
C     1.45666   1.21729  -0.37174
C     1.13548   2.22317   0.59001
N     0.81255   3.05320   1.33885
C    -0.45684   0.28161  -1.35343
C    -1.33273   1.08969  -0.50484
O    -1.69471   2.23584  -0.79300
C    -1.77214   0.47381   0.77703
C    -1.59481  -0.83463   1.03276
C    -0.94600  -1.73377   0.04652
O    -0.98142  -2.95722   0.19374
C    -0.21997  -1.08355  -1.06940
H     1.39373  -3.20537   0.37653
H     2.86502  -2.44410   1.10375
H     2.78250  -2.76522  -0.66028
H     1.86800   1.58941  -1.32376
H    -0.26600   0.68678  -2.36297
H    -2.26409   1.14339   1.48694
H    -1.93548  -1.30158   1.95548
H     0.06282  -1.76168  -1.90079
22

C     2.16640  -2.44965   0.20165
C     1.54652  -1.14488  -0.09104
N     1.92046   0.03086   0.06495
C     1.44342   1.21035  -0.37712
C     1.13068   2.22132   0.58610
N     0.81314   3.05143   1.33639
C    -0.43912   0.28765  -1.34274
C    -1.32952   1.09016  -0.50355
O    -1.69675   2.23442  -0.79402
C    -1.77348   0.47315   0.77674
C    -1.59670  -0.83519   1.03314
C    -0.94325  -1.73425   0.04978
O    -0.98509  -2.95771   0.19331
C    -0.19580  -1.08185  -1.05481
H     1.39366  -3.20579   0.37631
H     2.86311  -2.43941   1.10189
H     2.78102  -2.76438  -0.66142
H     1.86688   1.58861  -1.32402
H    -0.26362   0.68688  -2.36138
H    -2.26558   1.14301   1.48629
H    -1.93733  -1.30182   1.95507
H     0.06481  -1.76136  -1.89907
22

C     2.15943  -2.44490   0.19587
C     1.52589  -1.14431  -0.10566
N     1.92788   0.03075   0.06908
C     1.43017   1.20341  -0.38249
C     1.12589   2.21947   0.58219
N     0.81374   3.04967   1.33392
C    -0.42141   0.29368  -1.33205
C    -1.32632   1.09064  -0.50225
O    -1.69878   2.23300  -0.79503
C    -1.77482   0.47249   0.77645
C    -1.59860  -0.83575   1.03351
C    -0.94051  -1.73472   0.05304
O    -0.98876  -2.95820   0.19288
C    -0.17162  -1.08015  -1.04023
H     1.39359  -3.20620   0.37610
H     2.86120  -2.43472   1.10004
H     2.77955  -2.76355  -0.66257
H     1.86576   1.58780  -1.32428
H    -0.26124   0.68697  -2.35979
H    -2.26707   1.14263   1.48564
H    -1.93918  -1.30207   1.95467
H     0.06679  -1.76105  -1.89736
22

C     2.15247  -2.44015   0.19009
C     1.50525  -1.14375  -0.12029
N     1.93530   0.03064   0.07321
C     1.41692   1.19648  -0.38787
C     1.12110   2.21762   0.57828
N     0.81433   3.04790   1.33146
C    -0.40369   0.29972  -1.32136
C    -1.32311   1.09112  -0.50096
O    -1.70082   2.23158  -0.79605
C    -1.77616   0.47183   0.77615
C    -1.60049  -0.83631   1.03388
C    -0.93776  -1.73520   0.05630
O    -0.99243  -2.95870   0.19246
C    -0.14745  -1.07845  -1.02564
H     1.39352  -3.20662   0.37588
H     2.85928  -2.43002   1.09818
H     2.77807  -2.76271  -0.66372
H     1.86464   1.58700  -1.32454
H    -0.25886   0.68707  -2.35820
H    -2.26856   1.14225   1.48499
H    -1.94103  -1.30231   1.95426
H     0.06877  -1.76073  -1.89565
22

C     2.14550  -2.43541   0.18430
C     1.48462  -1.14318  -0.13491
N     1.94272   0.03054   0.07734
C     1.40367   1.18954  -0.39324
C     1.11630   2.21577   0.57437
N     0.81492   3.04614   1.32900
C    -0.38598   0.30576  -1.31067
C    -1.31991   1.09159  -0.49966
O    -1.70285   2.23016  -0.79706
C    -1.77750   0.47117   0.77586
C    -1.60239  -0.83687   1.03426
C    -0.93501  -1.73567   0.05956
O    -0.99610  -2.95919   0.19203
C    -0.12328  -1.07675  -1.01106
H     1.39344  -3.20704   0.37567
H     2.85737  -2.42533   1.09632
H     2.77659  -2.76188  -0.66487
H     1.86351   1.58619  -1.32480
H    -0.25648   0.68717  -2.35662
H    -2.27005   1.14186   1.48434
H    -1.94288  -1.30255   1.95385
H     0.07076  -1.76041  -1.89394
22

C     2.13853  -2.43066   0.17852
C     1.46399  -1.14261  -0.14953
N     1.95014   0.03043   0.08147
C     1.39043   1.18260  -0.39862
C     1.11151   2.21392   0.57046
N     0.81552   3.04437   1.32654
C    -0.36826   0.31179  -1.29998
C    -1.31670   1.09207  -0.49837
O    -1.70489   2.22874  -0.79807
C    -1.77884   0.47051   0.77557
C    -1.60429  -0.83743   1.03463
C    -0.93227  -1.73615   0.06282
O    -0.99977  -2.95968   0.19160
C    -0.09911  -1.07505  -0.99647
H     1.39337  -3.20745   0.37545
H     2.85546  -2.42064   1.09447
H     2.77512  -2.76104  -0.66602
H     1.86239   1.58538  -1.32506
H    -0.25410   0.68726  -2.35503
H    -2.27154   1.14148   1.48369
H    -1.94473  -1.30280   1.95344
H     0.07274  -1.76010  -1.89222
22

C     2.14550  -2.43541   0.18430
C     1.48462  -1.14318  -0.13491
N     1.94272   0.03054   0.07734
C     1.40367   1.18954  -0.39324
C     1.11630   2.21577   0.57437
N     0.81492   3.04614   1.32900
C    -0.38598   0.30576  -1.31067
C    -1.31991   1.09159  -0.49966
O    -1.70285   2.23016  -0.79706
C    -1.77750   0.47117   0.77586
C    -1.60239  -0.83687   1.03426
C    -0.93501  -1.73567   0.05956
O    -0.99610  -2.95919   0.19203
C    -0.12328  -1.07675  -1.01106
H     1.39344  -3.20704   0.37567
H     2.85737  -2.42533   1.09632
H     2.77659  -2.76188  -0.66487
H     1.86351   1.58619  -1.32480
H    -0.25648   0.68717  -2.35662
H    -2.27005   1.14186   1.48434
H    -1.94288  -1.30255   1.95385
H     0.07076  -1.76041  -1.89394
22

C     2.15247  -2.44015   0.19009
C     1.50525  -1.14375  -0.12029
N     1.93530   0.03064   0.07321
C     1.41692   1.19648  -0.38787
C     1.12110   2.21762   0.57828
N     0.81433   3.04790   1.33146
C    -0.40369   0.29972  -1.32136
C    -1.32311   1.09112  -0.50096
O    -1.70082   2.23158  -0.79605
C    -1.77616   0.47183   0.77615
C    -1.60049  -0.83631   1.03388
C    -0.93776  -1.73520   0.05630
O    -0.99243  -2.95870   0.19246
C    -0.14745  -1.07845  -1.02564
H     1.39352  -3.20662   0.37588
H     2.85928  -2.43002   1.09818
H     2.77807  -2.76271  -0.66372
H     1.86464   1.58700  -1.32454
H    -0.25886   0.68707  -2.35820
H    -2.26856   1.14225   1.48499
H    -1.94103  -1.30231   1.95426
H     0.06877  -1.76073  -1.89565
22

C     2.15943  -2.44490   0.19587
C     1.52589  -1.14431  -0.10566
N     1.92788   0.03075   0.06908
C     1.43017   1.20341  -0.38249
C     1.12589   2.21947   0.58219
N     0.81374   3.04967   1.33392
C    -0.42141   0.29368  -1.33205
C    -1.32632   1.09064  -0.50225
O    -1.69878   2.23300  -0.79503
C    -1.77482   0.47249   0.77645
C    -1.59860  -0.83575   1.03351
C    -0.94051  -1.73472   0.05304
O    -0.98876  -2.95820   0.19288
C    -0.17162  -1.08015  -1.04023
H     1.39359  -3.20620   0.37610
H     2.86120  -2.43472   1.10004
H     2.77955  -2.76355  -0.66257
H     1.86576   1.58780  -1.32428
H    -0.26124   0.68697  -2.35979
H    -2.26707   1.14263   1.48564
H    -1.93918  -1.30207   1.95467
H     0.06679  -1.76105  -1.89736
22

C     2.16640  -2.44965   0.20165
C     1.54652  -1.14488  -0.09104
N     1.92046   0.03086   0.06495
C     1.44342   1.21035  -0.37712
C     1.13068   2.22132   0.58610
N     0.81314   3.05143   1.33639
C    -0.43912   0.28765  -1.34274
C    -1.32952   1.09016  -0.50355
O    -1.69675   2.23442  -0.79402
C    -1.77348   0.47315   0.77674
C    -1.59670  -0.83519   1.03314
C    -0.94325  -1.73425   0.04978
O    -0.98509  -2.95771   0.19331
C    -0.19580  -1.08185  -1.05481
H     1.39366  -3.20579   0.37631
H     2.86311  -2.43941   1.10189
H     2.78102  -2.76438  -0.66142
H     1.86688   1.58861  -1.32402
H    -0.26362   0.68688  -2.36138
H    -2.26558   1.14301   1.48629
H    -1.93733  -1.30182   1.95507
H     0.06481  -1.76136  -1.89907
22

C     2.17337  -2.45439   0.20743
C     1.56715  -1.14545  -0.07642
N     1.91304   0.03096   0.06081
C     1.45666   1.21729  -0.37174
C     1.13548   2.22317   0.59001
N     0.81255   3.05320   1.33885
C    -0.45684   0.28161  -1.35343
C    -1.33273   1.08969  -0.50484
O    -1.69471   2.23584  -0.79300
C    -1.77214   0.47381   0.77703
C    -1.59481  -0.83463   1.03276
C    -0.94600  -1.73377   0.04652
O    -0.98142  -2.95722   0.19374
C    -0.21997  -1.08355  -1.06940
H     1.39373  -3.20537   0.37653
H     2.86502  -2.44410   1.10375
H     2.78250  -2.76522  -0.66028
H     1.86800   1.58941  -1.32376
H    -0.26600   0.68678  -2.36297
H    -2.26409   1.14339   1.48694
H    -1.93548  -1.30158   1.95548
H     0.06282  -1.76168  -1.90079
22

C     2.18034  -2.45914   0.21322
C     1.58779  -1.14602  -0.06179
N     1.90562   0.03107   0.05668
C     1.46991   1.22422  -0.36636
C     1.14027   2.22503   0.59392
N     0.81196   3.05497   1.34131
C    -0.47455   0.27557  -1.36412
C    -1.33594   1.08921  -0.50614
O    -1.69268   2.23727  -0.79199
C    -1.77080   0.47447   0.77733
C    -1.59291  -0.83407   1.03239
C    -0.94875  -1.73330   0.04326
O    -0.97775  -2.95672   0.19417
C    -0.24414  -1.08525  -1.08398
H     1.39380  -3.20495   0.37674
H     2.86694  -2.44879   1.10561
H     2.78398  -2.76606  -0.65913
H     1.86912   1.59022  -1.32349
H    -0.26838   0.68668  -2.36456
H    -2.26260   1.14378   1.48759
H    -1.93363  -1.30134   1.95589
H     0.06084  -1.76199  -1.90250
22

C     2.18731  -2.46389   0.21900
C     1.60842  -1.14659  -0.04717
N     1.89820   0.03118   0.05255
C     1.48316   1.23116  -0.36099
C     1.14507   2.22688   0.59783
N     0.81136   3.05673   1.34377
C    -0.49227   0.26953  -1.37481
C    -1.33914   1.08874  -0.50744
O    -1.69064   2.23869  -0.79097
C    -1.76946   0.47513   0.77762
C    -1.59102  -0.83350   1.03201
C    -0.95149  -1.73283   0.04000
O    -0.97408  -2.95623   0.19460
C    -0.26832  -1.08695  -1.09857
H     1.39388  -3.20454   0.37696
H     2.86885  -2.45348   1.10746
H     2.78546  -2.76689  -0.65798
H     1.87025   1.59103  -1.32323
H    -0.27075   0.68659  -2.36615
H    -2.26111   1.14416   1.48824
H    -1.93178  -1.30109   1.95630
H     0.05885  -1.76231  -1.90421
22

C     2.19428  -2.46863   0.22478
C     1.62906  -1.14716  -0.03255
N     1.89077   0.03128   0.04842
C     1.49641   1.23809  -0.35561
C     1.14986   2.22873   0.60174
N     0.81077   3.05850   1.34623
C    -0.50998   0.26350  -1.38550
C    -1.34235   1.08826  -0.50873
O    -1.68861   2.24011  -0.78996
C    -1.76812   0.47579   0.77791
C    -1.58912  -0.83294   1.03164
C    -0.95424  -1.73235   0.03674
O    -0.97041  -2.95574   0.19502
C    -0.29249  -1.08865  -1.11316
H     1.39395  -3.20412   0.37718
H     2.87076  -2.45817   1.10932
H     2.78693  -2.76773  -0.65683
H     1.87137   1.59183  -1.32297
H    -0.27313   0.68649  -2.36774
H    -2.25962   1.14454   1.48890
H    -1.92993  -1.30085   1.95671
H     0.05687  -1.76262  -1.90593
22

C     2.20125  -2.47338   0.23056
C     1.64969  -1.14772  -0.01793
N     1.88335   0.03139   0.04429
C     1.50965   1.24503  -0.35024
C     1.15465   2.23058   0.60565
N     0.81018   3.06026   1.34870
C    -0.52770   0.25746  -1.39619
C    -1.34555   1.08779  -0.51003
O    -1.68657   2.24153  -0.78894
C    -1.76677   0.47644   0.77821
C    -1.58723  -0.83238   1.03127
C    -0.95699  -1.73188   0.03348
O    -0.96674  -2.95524   0.19545
C    -0.31666  -1.09035  -1.12774
H     1.39402  -3.20370   0.37739
H     2.87267  -2.46286   1.11118
H     2.78841  -2.76856  -0.65568
H     1.87249   1.59264  -1.32271
H    -0.27551   0.68639  -2.36932
H    -2.25813   1.14493   1.48955
H    -1.92808  -1.30060   1.95712
H     0.05488  -1.76294  -1.90764
22

C     2.20822  -2.47813   0.23635
C     1.67032  -1.14829  -0.00330
N     1.87593   0.03149   0.04015
C     1.52290   1.25197  -0.34486
C     1.15945   2.23243   0.60956
N     0.80958   3.06203   1.35116
C    -0.54542   0.25142  -1.40688
C    -1.34876   1.08731  -0.51132
O    -1.68454   2.24295  -0.78793
C    -1.76543   0.47710   0.77850
C    -1.58533  -0.83182   1.03089
C    -0.95973  -1.73140   0.03022
O    -0.96307  -2.95475   0.19588
C    -0.34083  -1.09205  -1.14233
H     1.39409  -3.20329   0.37761
H     2.87459  -2.46756   1.11303
H     2.78989  -2.76940  -0.65453
H     1.87361   1.59345  -1.32245
H    -0.27789   0.68630  -2.37091
H    -2.25664   1.14531   1.49020
H    -1.92623  -1.30036   1.95753
H     0.05290  -1.76326  -1.90935
22

C     2.21519  -2.48287   0.24213
C     1.69096  -1.14886   0.01132
N     1.86851   0.03160   0.03602
C     1.53615   1.25890  -0.33948
C     1.16424   2.23428   0.61347
N     0.80899   3.06379   1.35362
C    -0.56313   0.24539  -1.41757
C    -1.35197   1.08683  -0.51262
O    -1.68250   2.24437  -0.78692
C    -1.76409   0.47776   0.77879
C    -1.58344  -0.83126   1.03052
C    -0.96248  -1.73093   0.02696
O    -0.95940  -2.95425   0.19631
C    -0.36501  -1.09375  -1.15691
H     1.39416  -3.20287   0.37782
H     2.87650  -2.47225   1.11489
H     2.79136  -2.77024  -0.65338
H     1.87473   1.59425  -1.32219
H    -0.28027   0.68620  -2.37250
H    -2.25515   1.14569   1.49085
H    -1.92438  -1.30012   1.95793
H     0.05092  -1.76357  -1.91107
22

C     2.22216  -2.48762   0.24791
C     1.71159  -1.14943   0.02594
N     1.86109   0.03171   0.03189
C     1.54940   1.26584  -0.33411
C     1.16903   2.23613   0.61738
N     0.80840   3.06556   1.35608
C    -0.58085   0.23935  -1.42826
C    -1.35517   1.08636  -0.51391
O    -1.68047   2.24580  -0.78590
C    -1.76275   0.47842   0.77908
C    -1.58154  -0.83070   1.03015
C    -0.96523  -1.73046   0.02370
O    -0.95573  -2.95376   0.19673
C    -0.38918  -1.09545  -1.17150
H     1.39424  -3.20245   0.37804
H     2.87841  -2.47694   1.11675
H     2.79284  -2.77107  -0.65224
H     1.87585   1.59506  -1.32193
H    -0.28265   0.68610  -2.37409
H    -2.25366   1.14607   1.49150
H    -1.92253  -1.29987   1.95834
H     0.04893  -1.76389  -1.91278
22

C     2.22913  -2.49236   0.25369
C     1.73222  -1.15000   0.04057
N     1.85367   0.03181   0.02776
C     1.56264   1.27278  -0.32873
C     1.17383   2.23798   0.62129
N     0.80780   3.06732   1.35855
C    -0.59856   0.23331  -1.43895
C    -1.35838   1.08588  -0.51521
O    -1.67843   2.24722  -0.78489
C    -1.76141   0.47908   0.77938
C    -1.57964  -0.83014   1.02977
C    -0.96797  -1.72998   0.02044
O    -0.95206  -2.95327   0.19716
C    -0.41335  -1.09715  -1.18608
H     1.39431  -3.20204   0.37825
H     2.88033  -2.48163   1.11860
H     2.79432  -2.77191  -0.65109
H     1.87698   1.59586  -1.32167
H    -0.28503   0.68601  -2.37568
H    -2.25217   1.14646   1.49215
H    -1.92068  -1.29963   1.95875
H     0.04695  -1.76420  -1.91449
22

C     2.23609  -2.49711   0.25948
C     1.75286  -1.15056   0.05519
N     1.84625   0.03192   0.02363
C     1.57589   1.27971  -0.32335
C     1.17862   2.23983   0.62520
N     0.80721   3.06909   1.36101
C    -0.61628   0.22727  -1.44964
C    -1.36158   1.08541  -0.51650
O    -1.67640   2.24864  -0.78387
C    -1.76007   0.47974   0.77967
C    -1.57775  -0.82958   1.02940
C    -0.97072  -1.72951   0.01718
O    -0.94839  -2.95277   0.19759
C    -0.43753  -1.09885  -1.20067
H     1.39438  -3.20162   0.37847
H     2.88224  -2.48632   1.12046
H     2.79579  -2.77274  -0.64994
H     1.87810   1.59667  -1.32141
H    -0.28741   0.68591  -2.37727
H    -2.25068   1.14684   1.49280
H    -1.91883  -1.29939   1.95916
H     0.04496  -1.76452  -1.91621
22

C     2.24306  -2.50186   0.26526
C     1.77349  -1.15113   0.06981
N     1.83882   0.03203   0.01949
C     1.58914   1.28665  -0.31798
C     1.18341   2.24168   0.62911
N     0.80662   3.07085   1.36347
C    -0.63399   0.22124  -1.46034
C    -1.36479   1.08493  -0.51780
O    -1.67436   2.25006  -0.78286
C    -1.75873   0.48040   0.77996
C    -1.57585  -0.82902   1.02903
C    -0.97347  -1.72903   0.01392
O    -0.94472  -2.95228   0.19802
C    -0.46170  -1.10055  -1.21525
H     1.39445  -3.20120   0.37869
H     2.88415  -2.49101   1.12232
H     2.79727  -2.77358  -0.64879
H     1.87922   1.59748  -1.32115
H    -0.28978   0.68582  -2.37886
H    -2.24919   1.14722   1.49345
H    -1.91698  -1.29914   1.95957
H     0.04298  -1.76484  -1.91792
22

C     2.25003  -2.50660   0.27104
C     1.79412  -1.15170   0.08443
N     1.83140   0.03213   0.01536
C     1.60238   1.29359  -0.31260
C     1.18821   2.24353   0.63302
N     0.80602   3.07262   1.36593
C    -0.65171   0.21520  -1.47103
C    -1.36800   1.08445  -0.51909
O    -1.67233   2.25148  -0.78184
C    -1.75739   0.48106   0.78026
C    -1.57396  -0.82846   1.02865
C    -0.97621  -1.72856   0.01066
O    -0.94105  -2.95179   0.19844
C    -0.48587  -1.10225  -1.22984
H     1.39452  -3.20079   0.37890
H     2.88607  -2.49570   1.12418
H     2.79875  -2.77442  -0.64764
H     1.88034   1.59828  -1.32088
H    -0.29216   0.68572  -2.38044
H    -2.24770   1.14760   1.49410
H    -1.91513  -1.29890   1.95998
H     0.04100  -1.76515  -1.91963
22

C     2.25700  -2.51135   0.27683
C     1.81476  -1.15227   0.09906
N     1.82398   0.03224   0.01123
C     1.61563   1.30052  -0.30723
C     1.19300   2.24538   0.63693
N     0.80543   3.07438   1.36840
C    -0.66942   0.20916  -1.48172
C    -1.37120   1.08398  -0.52039
O    -1.67029   2.25290  -0.78083
C    -1.75605   0.48172   0.78055
C    -1.57206  -0.82790   1.02828
C    -0.97896  -1.72808   0.00739
O    -0.93738  -2.95129   0.19887
C    -0.51004  -1.10395  -1.24443
H     1.39460  -3.20037   0.37912
H     2.88798  -2.50040   1.12603
H     2.80022  -2.77525  -0.64649
H     1.88146   1.59909  -1.32062
H    -0.29454   0.68562  -2.38203
H    -2.24621   1.14799   1.49475
H    -1.91328  -1.29866   1.96039
H     0.03901  -1.76547  -1.92135
22

C     2.26397  -2.51610   0.28261
C     1.83539  -1.15284   0.11368
N     1.81656   0.03235   0.00710
C     1.62888   1.30746  -0.30185
C     1.19779   2.24723   0.64084
N     0.80484   3.07615   1.37086
C    -0.68714   0.20312  -1.49241
C    -1.37441   1.08350  -0.52168
O    -1.66826   2.25433  -0.77982
C    -1.75471   0.48238   0.78084
C    -1.57017  -0.82734   1.02791
C    -0.98171  -1.72761   0.00413
O    -0.93371  -2.95080   0.19930
C    -0.53422  -1.10565  -1.25901
H     1.39467  -3.19995   0.37933
H     2.88989  -2.50509   1.12789
H     2.80170  -2.77609  -0.64535
H     1.88258   1.59990  -1.32036
H    -0.29692   0.68553  -2.38362
H    -2.24472   1.14837   1.49541
H    -1.91143  -1.29841   1.96079
H     0.03703  -1.76578  -1.92306
22

C     2.27094  -2.52084   0.28839
C     1.85602  -1.15341   0.12830
N     1.80914   0.03245   0.00297
C     1.64213   1.31440  -0.29647
C     1.20259   2.24908   0.64475
N     0.80424   3.07791   1.37332
C    -0.70485   0.19709  -1.50310
C    -1.37761   1.08303  -0.52298
O    -1.66622   2.25575  -0.77880
C    -1.75337   0.48303   0.78114
C    -1.56827  -0.82678   1.02753
C    -0.98445  -1.72714   0.00087
O    -0.93004  -2.95030   0.19973
C    -0.55839  -1.10735  -1.27360
H     1.39474  -3.19954   0.37955
H     2.89181  -2.50978   1.12975
H     2.80318  -2.77692  -0.64420
H     1.88371   1.60070  -1.32010
H    -0.29930   0.68543  -2.38521
H    -2.24323   1.14875   1.49606
H    -1.90958  -1.29817   1.96120
H     0.03504  -1.76610  -1.92477
