14

N -4.543815343 -0.102555475 -0.118820328
C -1.783111688 0.213691383 -0.011611951
C 0.068400111 -1.603039157 0.359433827
C 2.306313792 -0.162733897 0.231128169
N 4.779916837 -1.119463797 0.602343966
C 1.582532038 2.330079082 -0.197325315
N -0.977814009 2.555444173 -0.337714600
H -5.124303530 -1.219440627 -1.576661887
H -5.293343859 -0.788758551 1.516980991
H -0.125025660 -3.602534030 0.721786241
H 6.083838880 0.253417376 0.375010707
H 5.181281192 -2.530726064 -0.618015446
H 2.790189864 3.967276966 -0.392557003
H -5.188852153 1.697355558 -0.404770246

