15

C -2.403478256 -2.517578049 0.614283218
N -0.147305814 -0.984106438 0.335152263
C 2.214868868 -1.818071470 0.561943549
C 3.810520896 0.232707376 -0.086498132
C 2.238794615 2.569112845 -0.534122642
C -0.162523987 1.544541759 -0.333412695
N -2.532034869 2.681113077 -0.770447672
H -3.708147157 -2.055951877 -0.907884448
H -1.897083962 -4.508345996 0.537841018
H -3.324409902 -2.118903794 2.414207044
H 2.623889108 -3.730206289 1.140077043
H 5.821446930 0.261460163 0.273831974
H 3.502596487 0.666827299 -2.234219758
H -3.445348236 3.134624632 0.848337742
H -2.243997616 4.293061045 -1.750886586

