19

C 4.758922962 0.952716367 -1.257323173
C 2.609324743 -0.960326464 -1.257325271
C 0.638041667 -0.484216506 0.669791107
C -0.885339014 1.933609666 1.054413906
C -3.304288798 0.344306928 1.545219622
C -4.889723568 -0.266282990 -0.583233506
C -1.481943749 -2.029511679 1.406643058
H 6.098727767 0.562842341 -2.773978565
H 5.783089893 0.906690273 0.532117359
H 4.044513286 2.870380732 -1.524930937
H 1.627921124 -0.939942064 -3.104280090
H 3.339113710 -2.881981591 -1.047801773
H -0.121007120 -1.693819521 3.155508335
H -1.032976229 2.938601413 -0.741986506
H -0.261807268 3.271382241 2.494540775
H -4.254653023 0.591100606 3.350497930
H -6.570169630 -1.392402063 -0.305803418
H -4.311074632 0.162322240 -2.497434494
H -1.885788238 -3.993346853 0.971130860

