16

C -3.824616439 -2.105131961 -0.075051550
O -1.454706031 -1.857043595 1.084833413
C -0.052085331 2.236504588 -0.317202209
C 1.650875193 4.001781306 0.168242298
C 0.392279535 -0.577225122 -0.384729720
C 2.951611082 -1.407056964 0.589122630
H -4.981767876 -3.284217034 1.153314405
H -3.666189057 -3.024655063 -1.928965740
H -4.787729153 -0.286994918 -0.324428994
H -1.979222307 2.817554118 -0.726081324
H 3.605978018 3.557004461 0.585532981
H 1.143168333 5.984989366 0.165302149
H 0.193708285 -1.201788922 -2.362663025
H 3.092675414 -3.458622126 0.483132294
H 3.191660988 -0.838632127 2.556436109
H 4.475630868 -0.589698750 -0.531653734

