16

C -4.176311365 -1.578181340 0.246392111
O -1.778564459 -0.944091676 1.127631080
C -0.224251399 1.525524462 -0.430221342
C 0.857477496 3.442385920 0.994350756
C 1.528922757 -0.262423432 -1.349628357
C 3.653346138 -1.363964217 0.081292182
H -5.660382266 -0.626977737 1.342778932
H -4.500713846 -3.619151450 0.386322570
H -4.451186732 -1.044489159 -1.753223931
H -1.707639863 2.069414664 -1.743764869
H 2.557846941 3.136382625 2.079380588
H -0.029585477 5.278957337 1.122716866
H 1.320215602 -0.898518361 -3.293905471
H 3.394004925 -3.414219949 0.114685116
H 3.747927044 -0.692876833 2.018324803
H 5.445796324 -1.020089998 -0.890097741

