13

C 2.923350587 -1.028750764 -0.752125000
C 1.356996248 0.809017681 0.753237199
C -0.749046051 2.730346168 0.739020109
C 0.113291935 -1.011466082 -1.131221938
C -2.468541073 -1.116667116 0.099328578
N -2.900676141 1.646079351 0.619838710
H 3.906012159 -2.369955951 0.442990184
H 3.952407392 -0.514448061 -2.444862483
H 1.243252613 -0.023158329 2.644607933
H -0.604221088 4.739465888 1.130126860
H -0.172437074 0.020436783 -2.892507271
H -2.524728716 -2.147395837 1.890468881
H -3.980452647 -1.806558654 -1.116895735

