13

C 2.593278531 -0.835651424 -0.581355836
C 1.817085430 1.021568123 1.378971250
C -0.597005849 2.363317343 0.354868022
C -0.108526745 -0.279494311 -1.307489260
C -2.361668991 -1.127253097 0.277766383
N -2.656989324 1.360367992 1.465292673
H 3.031231555 -2.724039585 0.097098229
H 3.923292873 -0.208273784 -2.018211155
H 1.387985074 0.183454650 3.214636827
H -0.482647769 4.331432482 -0.240108942
H -0.428786076 0.181081324 -3.284537588
H -2.034093660 -2.755288739 1.512979118
H -4.024390235 -1.528880464 -0.890150578

