16

C 4.724945951 0.705125490 -0.131680368
C 2.436135974 -0.479530155 1.094397771
O 0.278090415 0.131207861 -0.356050291
C -1.938433003 -0.981531062 0.611761662
C -3.276023332 0.053219866 2.735143672
C -4.279127792 0.065341344 -0.882013247
H 6.423100523 0.272776675 0.955477975
H 4.513090399 2.753231205 -0.228434818
H 4.972057461 -0.013262287 -2.047782345
H 2.649586700 -2.543285184 1.203183691
H 2.203416561 0.220325777 3.035959763
H -1.843529199 -3.039142383 0.465277179
H -5.400177976 1.443528830 0.217840466
H -2.574823031 2.009879617 2.958570055
H -5.553644619 -1.441900113 -1.426693260
H -3.473529646 1.077922949 -2.480257488

