16

C 4.748665755 0.661407810 -0.041840124
C 2.418308732 -0.488887739 1.137876193
O 0.323342420 0.023319353 -0.438357728
C -1.921926944 -1.041600769 0.490242370
C -3.322117116 0.158837944 2.563465134
C -4.213285841 0.068268492 -0.848637074
H 6.401105962 0.296366296 1.136479194
H 4.525236500 2.700942710 -0.241950347
H 5.084503290 -0.140990539 -1.910613778
H 2.646379381 -2.541735211 1.358105026
H 2.089161773 0.301701012 3.029531161
H -1.829483356 -3.101588043 0.483123809
H -5.367715637 1.029837413 0.754886060
H -2.566702556 2.100938943 2.677810610
H -5.555099217 -1.322377732 -1.527034013
H -3.645791202 1.501213324 -2.199614450

