13

C 4.593825773 1.434354568 1.008663448
C 2.754224842 0.458017494 0.115873735
C 0.494431194 -0.624556657 -0.921113646
C -1.912753382 0.853927684 -0.527386864
C -2.699821668 0.948188338 2.219140726
O -4.840009012 0.691459312 2.916073403
C 0.545975609 -2.825671796 -2.134770275
H 6.244313307 2.276329281 1.792069765
H -3.465094910 0.068364244 -1.627879871
H -1.613570827 2.813511956 -1.129435920
H -1.154969087 1.295615922 3.591075203
H 2.292930223 -3.858251410 -2.383703576
H -1.165686366 -3.636752661 -2.910072124

