15

O -3.301335817 3.392885300 -2.517926420
C -2.108164084 1.612388652 -1.338394408
C -1.650913535 -2.177621119 2.226335972
C 0.563816419 -1.737051787 0.948853578
O 0.769575261 -1.808645176 -1.450670332
C 2.867431852 -0.694526999 2.332654080
O 3.969071961 1.241526102 0.855966868
H -2.520875016 5.020078917 -2.254355508
H -0.494263405 2.102138522 -0.195395168
H -2.853155481 -0.257299043 -1.562517627
H -3.206435132 -3.140511696 1.307124146
H -1.747067884 -1.959369883 4.258411348
H 2.359980483 0.103576626 4.164045360
H 4.220001342 -2.235624599 2.651496533
H 3.852638016 0.599570566 -0.853241146

