18

C 5.188485489 0.386824160 0.656384200
O 2.721919974 1.278489485 0.302276188
C 1.018348407 -0.643212204 -0.378703629
C -1.604979509 0.468710471 -0.734375823
C -2.575592697 1.655824102 1.704577675
C -3.407452027 -1.554297319 -1.716644389
H 5.280254785 -1.021164099 2.178739893
H 6.367366414 1.996052472 1.165394592
H 5.941982676 -0.474472133 -1.075624910
H 1.652590006 -1.556294854 -2.137446165
H 0.970848100 -2.113128432 1.098680533
H -1.433325650 1.954765603 -2.165730130
H -1.267627850 3.086094859 2.401081592
H -4.415319503 2.544903734 1.413758595
H -2.798415123 0.219087345 3.175480681
H -2.743813811 -2.368254517 -3.493871036
H -3.609387669 -3.092345411 -0.349816047
H -5.285882011 -0.767583263 -2.044161781

