16

C -3.162278582 1.367056130 1.476609355
C -1.773253894 0.164969481 -0.711046436
C -0.584863395 -2.174623352 -0.434245760
C 3.320452041 -1.996529647 -0.015620363
C 3.760736364 0.506223840 -0.380990972
C 2.689860959 2.585555069 -0.816779240
H -5.045580904 0.547899804 1.710736444
H -3.400505356 3.398702879 1.209853461
H -2.131653833 1.086172757 3.242599010
H -2.501345603 0.608432040 -2.580506023
H 0.400844132 1.871562172 -0.931981669
H -0.797929411 -3.154144218 1.352913798
H -0.487387372 -3.402753544 -2.067564735
H 3.536724846 -2.743029934 1.882273990
H 3.879498923 -3.305999019 -1.491107901
H 3.098590144 4.555501882 -1.088770828

