13

O 5.631941434 0.917580425 -0.412028684
N 3.984272029 0.033590505 1.459127215
C 1.838256259 0.915717835 1.330110945
C -1.888170918 -1.888634052 -1.486223242
C -2.647202867 0.438275242 0.018520620
C -0.495178335 1.694181612 1.391323086
H 7.172176526 0.044132437 -0.014453249
H -3.525062458 -2.710335197 -2.431057921
H -1.067984086 -3.331303661 -0.260739989
H -3.521817326 1.837365877 -1.229201648
H -4.096240041 -0.056741049 1.409685554
H -0.486259300 -1.418091737 -2.925220905
H -0.896559641 3.372186053 2.501252705

