10

N -4.299445409 -1.531139197 0.428129208
H -5.922470328 -0.567886001 0.164878604
C -3.376668237 -3.549579104 1.389422305
C -1.636604208 -1.502654902 0.141544701
C -0.121973582 0.242649848 1.743830858
H -0.874770834 0.621740965 3.618032259
N 2.541931289 0.259609120 1.468044908
H 4.159123625 -0.710538440 1.742069653
C 1.632071114 2.278578168 0.496032018
H -0.889984036 -1.872379440 -1.737026163

