12

N -2.025159054 -2.458634656 -0.628290340
C -0.125438678 -1.274146668 -1.811965312
C -2.042087977 0.209475064 -0.283588743
C -0.054795387 1.554974521 1.357761550
N 1.895887350 0.204975947 2.624229561
C 2.195133135 0.289512996 0.110953172
H -1.939355548 -3.948685009 0.559323614
H 1.465782811 0.602951343 -3.753013261
H -3.628979613 1.249557552 -1.043936660
H -0.232144955 3.553537759 1.747535251
H 1.929385145 -1.316633853 3.773621442
H 2.630940546 1.390171524 -2.781381094

