12

C 0.036593431 0.544665046 -2.981135709
O 0.299049197 2.773310509 -1.983041197
C 2.495666995 3.085802613 -0.296712626
H 3.773562521 4.424560869 -1.201187366
H 1.770142725 3.892445607 1.453725036
C 3.568469052 0.480133091 -0.053080328
H 5.585472350 0.228280125 0.139334968
C 1.775675068 -1.443554757 0.926211276
H 0.040086382 -0.804833525 1.810287481
H 2.539432108 -3.178703665 1.689058224
C 2.037266548 -1.088029772 -1.900552101
H 2.795149091 -2.623301668 -3.011240955

