12

C 2.641386952 0.697590075 -1.919934984
C 0.206633086 0.653020128 -1.366111002
C -2.231181229 1.683028807 -2.490680518
H -2.340192330 3.739556918 -2.534646093
H -2.672604622 0.955536122 -4.366441076
C -3.746064738 0.430051437 -0.306293292
H -5.041928120 -1.072610929 -0.862177019
H -4.730838155 1.721772274 0.961531051
C -1.237691092 -0.552604957 0.760575534
O -0.666052190 -1.785179087 2.563391208
H 3.980064932 -0.265556220 -0.704922250
H 3.372437953 1.666240877 -3.570099640

