15

O 4.184876454 -0.084155211 1.810611399
C 2.918475452 -0.640768108 -0.988692028
C 0.357298474 0.049909084 -0.371444624
C -1.462506178 2.098223179 -1.295713413
C -3.675584700 0.379225817 -0.396176925
C -1.708381184 -1.687371171 0.141261129
O -1.851279269 -3.896937354 0.705631823
H 4.534382283 -1.671351018 2.650185195
H 3.289063879 -2.643601711 -1.281327230
H 4.011486315 0.581895542 -2.218742693
H 2.088113428 0.379616971 2.008200671
H -1.342339344 3.938157874 -0.375052432
H -1.475649563 2.382969550 -3.340693918
H -5.064326420 -0.129802094 -1.830812382
H -4.659243254 1.039136396 1.290472182

