13

C 4.436771825 -0.856771174 -0.382539584
C 1.687518078 -0.199280029 0.490948277
C 1.110001334 2.597024119 0.101695649
H 2.330812712 3.754006709 1.296232181
H -0.845721850 3.020873362 0.597003657
H 1.405992878 3.150883136 -1.863798610
C 0.300193483 -2.072561738 -0.996517139
C -0.449133060 -1.346955586 -3.418527693
N -1.181698809 -0.966472818 -5.452731014
H 1.591638760 -0.704676018 2.490596369
H 4.902189449 -2.835706034 -0.066683692
H 5.703908611 0.313880864 0.744077999
H 4.719069621 -0.400271734 -2.372427353

