18

C 3.961748440 -1.060473615 -0.244031994
C 1.393532497 -0.084529358 0.734199002
C 1.053036126 2.704254304 0.076249145
C -0.444526834 -1.947051987 -0.352805140
C -4.291837655 -0.435864480 1.323006293
C -1.139909954 -1.579487292 -2.911373408
N -1.639322749 -1.485783616 -5.037292092
H 4.265202683 -3.034142395 0.257414619
H 5.465455825 0.074514755 0.592494808
H 4.089753178 -0.877900277 -2.295501724
H 1.393480888 -0.325452205 2.786419690
H 2.602656656 3.822238162 0.854800624
H -0.705255333 3.458849875 0.842696399
H 1.029078594 2.978237814 -1.969997457
H -2.710792983 -1.987610687 1.028022747
H -5.968444814 -1.628228393 1.270000439
H -3.958237556 0.353598919 3.190288669
H -4.380495441 1.009448686 -0.123193230

