10

O 1.565670427 -1.524168735 -1.798809001
C 1.796851868 -1.005628699 0.595526156
N 2.222620864 1.496461929 1.325681370
N -0.088258468 2.676013084 0.454624944
C -1.791594461 1.200422291 -0.347986131
C -1.443406035 -1.717644508 -0.214254219
N -0.004737770 -2.239219765 1.868415778
H 3.642295984 2.403653585 0.423613235
H -3.555637358 2.012724108 -0.993057749
H -2.904248649 -2.967022460 -0.974248058

