8

N 0.277373830 1.291715149 -0.360010798
C 2.569644917 0.441372352 -0.399431033
N 0.415749120 -4.025654858 0.346626284
N -1.218886843 -2.622053976 0.267866392
C -1.885955762 -0.292645992 -0.000028799
H -0.195472892 3.135315837 -0.578381502
H 3.859355444 2.036434559 -0.705725705
H -3.792082423 0.388304250 0.039750918

