17

C 3.047150854 -2.640583062 -0.242333263
C 0.963220901 -0.726282485 -0.423836052
C -1.990983811 -1.500369240 -0.334156756
C -2.385564163 1.199739647 -1.551800178
C -1.447796549 2.957225439 0.540384987
C 0.965427856 1.546432411 1.373907219
C -0.278927601 -0.099336534 -2.811128898
H 3.114670031 -3.514833749 1.626968759
H 2.800920125 -4.111529002 -1.662227439
H 4.870087934 -1.728965366 -0.571445508
H -2.550786357 -1.447844359 1.637687077
H -2.658817275 -3.183619542 -1.282840466
H -4.101013413 1.653863398 -2.577792338
H -2.818982184 3.187305718 2.066306934
H 0.929958282 0.978842643 3.359932483
H 2.674246700 2.665611181 1.085450296
H -1.040520848 4.831048328 -0.215969164

