11

O -3.627911955 2.426781735 0.294216922
C -3.262151118 0.222572094 -0.094460209
C -0.685615617 -0.966210089 -0.208381649
C 1.421330708 0.942420440 0.214814636
C 5.777134232 -1.258644054 0.017779375
N 3.827339856 -0.247858387 0.106267766
H -4.863642797 -1.091805407 -0.402584136
H -0.485238640 -1.899135884 -2.044102746
H -0.606826548 -2.479651944 1.200082178
H 1.217285962 1.852696355 2.051685367
H 1.350261945 2.427360029 -1.211344984

