11

O -3.508787305 2.431370557 0.255427175
C -3.176123396 0.223072191 -0.135682525
C -0.613635854 -1.007560263 -0.292382810
C 1.492832654 0.871385408 0.103351219
C 4.292380573 -0.762399687 -0.650244423
N 4.394262833 -0.437066516 1.562235075
H -4.795910609 -1.075110508 -0.416660346
H -0.456995058 -1.959016618 -2.120642550
H -0.538403287 -2.507145759 1.129672457
H 1.285519304 1.885735779 1.876738301
H 1.686829972 2.265264084 -1.387840925

