14

C -3.187359877 1.260675339 -0.820234302
C -0.897462627 0.589823075 0.792903344
C 1.212172041 2.511933663 0.486885120
N 3.268072367 1.146727802 0.124323683
C 3.022785386 -1.540143912 0.034863576
O 4.762354081 -2.953189683 -0.218687724
C 0.231651605 -2.035010518 0.296755258
H -2.717483558 1.184188467 -2.829363905
H -3.828488053 3.170718363 -0.393991060
H -4.738569780 -0.055034475 -0.478114108
H -1.441228863 0.769671845 2.785106463
H 5.002717512 1.917108237 -0.092506119
H -0.093870123 -3.425579527 1.779563879
H -0.439521894 -2.860320756 -1.472765085

