10

C -4.307693005 -1.686751643 -1.344406874
C -1.802180310 -0.942919762 -0.248221536
H -0.161431366 -1.881101207 -1.061848769
O -1.413463438 1.671515046 0.205603941
C -1.549777906 0.028902605 2.319701198
H -3.231835130 0.235225549 3.480930683
H 0.208121642 -0.223792177 3.349571246
H -4.630359243 -3.710572110 -1.101315208
H -4.370511867 -1.264473198 -3.362591346
H -5.836387218 -0.659196943 -0.419305094

