16

C -4.527296812 -1.184228472 -0.862951334
C -1.685846956 -0.873140586 -0.860446143
O -0.904254246 1.649756796 -0.906772646
C -0.353698357 -1.111321270 1.534594335
N 3.516442888 0.822375607 1.828894896
C 4.557543372 1.868153049 -0.102509857
O 3.383616685 2.384451152 -2.161447312
H -5.077729983 -3.165943630 -0.684455854
H -5.266312367 -0.451651555 -2.643922737
H -5.369167117 -0.102769524 0.677167351
H -0.820746890 -2.012981886 -2.362682622
H 1.310727911 2.018698629 -1.766078680
H -1.178370000 -0.182462128 3.154701687
H 1.067163284 -2.524501948 1.886285198
H 4.734838969 0.532390784 3.273957011
H 6.562647159 2.389687261 -0.090340398

