12

O -4.275360736 0.093626178 -1.640606364
C -2.519956420 -0.494342301 0.227519983
C 0.122686519 0.280371390 -0.513797220
O 0.509691809 1.282631519 -2.531006348
C 2.278479714 -0.210900881 1.287615332
O 4.573610692 0.632274620 0.318527360
H -3.347145254 0.869030904 -3.008063475
H -2.508490223 -2.533062748 0.616805983
H -2.995892259 0.452640070 2.011552705
H 2.342893750 -2.248850017 1.675886323
H 4.218598655 1.337773444 -1.327849623
H 1.846608584 0.728116786 3.086961544

