12

O -3.697237257 1.322013506 -0.764710671
C -2.376099979 -0.714207003 0.309775471
C 0.401266203 -0.476919215 -0.339260717
O 1.117022800 -0.454399481 -2.663851997
C 2.189827502 0.777270225 1.290608601
O 4.195467103 1.431466009 0.104695457
H -3.193030133 1.407999635 -2.510791286
H -3.069794516 -2.530243295 -0.401588817
H -2.675452855 -0.647050823 2.351977248
H 1.491738521 -2.091273768 1.048531491
H 3.594052655 0.949617594 -1.720528362
H 2.040148891 1.063893415 3.313464457

