15

C -3.719650184 2.081931095 -2.756876373
O 0.056294450 -1.880893790 4.297312494
C 1.923628662 -2.754795445 3.320001455
C 2.839243185 -2.173340983 0.755316975
C 2.076155147 -0.234156210 -0.666570579
C 0.126854915 1.719859720 -0.019912876
C -2.433928074 0.911014364 -0.959762589
H -2.986930384 3.759116207 -3.681929777
H -5.559698621 1.416951362 -3.358134578
H 3.102616224 -4.127993147 4.375858337
H 4.296070849 -3.425383468 0.037172973
H 2.924459761 -0.048192174 -2.528554447
H 0.035501170 1.979852285 2.022504764
H 0.648258963 3.511606777 -0.901609839
H -3.206627808 -0.763040002 -0.057874922

