12

O 1.733223618 -2.068084807 0.255829233
C 3.079631674 -0.024895120 -0.567759710
C 1.875937965 2.152731139 -0.381936232
C -0.674774391 1.659284720 0.769452806
N -0.699108280 -1.104139082 0.810102667
C -2.639158757 -2.492253167 -0.173948742
O -4.780358655 -1.723079776 -0.289125640
H 4.959424794 -0.481663146 -1.212134984
H 2.600964179 3.982503189 -0.899460200
H -2.278437667 2.314582364 -0.353833264
H -0.855329558 2.439228945 2.675848224
H -2.033449963 -4.399268529 -0.745193164

