10

O 2.446396846 -0.516636685 1.263016049
C 1.405815414 0.108312960 -1.675040235
C -0.090389115 -1.629591245 -0.129012547
N -2.224636068 -0.477786146 0.695220830
N -2.174668384 2.075116591 0.093985472
C -0.154640389 2.423282699 -1.195093679
H 3.855480618 -1.585528501 0.838698910
H 0.024995105 -3.670940566 -0.083167489
H -3.320320100 -1.005748829 2.151780040
H 0.224450652 4.278404764 -1.963395831

