15

C -4.563584939 -0.462799899 -0.322323442
C -1.775979975 -0.085957745 0.046767112
C -0.561029621 2.270749732 -0.237365229
N 1.881508405 2.103131781 0.142441584
C 2.441243998 -0.534209777 0.864431292
N 4.688522689 -1.402779116 -0.421604853
C -0.006743223 -1.942280013 0.608258053
H -4.949868108 -2.480361423 -0.450998371
H -5.660701195 0.287792835 1.259338056
H -5.259482027 0.438366459 -2.046745075
H -1.402181358 4.081177998 -0.719338989
H 3.148109321 3.512946139 0.012141037
H 5.392636420 -2.905944206 0.524764189
H 4.194198265 -2.058267056 -2.151848920
H 2.803422104 -0.503806371 2.909848853

