16

C 4.202219737 -0.180739983 -0.778073453
C 1.886343836 1.005610557 0.513141315
C -0.374736432 0.415660398 -1.008676449
C -1.808282481 -1.793426626 -0.749323104
C -4.102682986 0.442828801 0.582003918
O -2.829918974 2.230494994 1.680131101
H 4.027263941 -2.231363059 -0.902284623
H 4.473798911 0.555066930 -2.686509303
H 5.892666267 0.257594558 0.313337473
H 1.635531901 0.229038094 2.404397154
H 2.100351124 3.044658418 0.680126114
H -0.747231347 1.624844121 -2.626646937
H -1.204461543 -3.135879221 0.678252450
H -2.723745147 -2.583303763 -2.399539424
H -5.375917049 -0.740039597 1.749172339
H -5.028436118 0.850538554 -1.244632302

