12

N -4.894197608 -1.498879437 -2.198027723
C -3.521786372 -0.104575082 -1.263359884
C -1.697938652 1.577001017 -0.060822385
C 0.371117682 0.115405215 1.369061148
C 2.351627913 -1.265409651 -0.353662452
N 2.626083042 1.211037393 1.826899515
H -0.823185090 2.795646391 -1.475789988
H -2.693215657 2.789043121 1.279739275
H -0.434703754 -1.220089824 2.742992707
H 1.825160891 -0.971531369 -2.316887962
H 2.577740031 -3.205312578 0.263746165
H 4.234486527 -0.296242349 -0.129646532

