13

N 2.765905277 -2.297824745 -2.274825191
C 1.960066417 -0.453090581 -1.049618972
O 3.137829759 1.584619599 0.008679607
C 0.773639778 2.535432162 1.079988382
C -0.610527387 0.335328839 -0.147560228
C -3.004776467 0.200623076 -1.536235581
N -2.141438854 -1.482160558 1.211327183
H 4.669430956 -2.251537454 -2.524911717
H 0.835603009 2.520999738 3.136862446
H 0.319513457 4.398086221 0.334737450
H -2.813722529 -1.196826936 -3.050548430
H -4.118876711 -0.745321344 0.605597508
H -1.711742723 -3.269155217 0.655035653

