15

C -3.055231323 0.530983146 1.412018554
C -2.797657249 -0.022053652 -1.105829291
C 1.271024009 0.106988602 -2.352530711
C 2.917908761 0.332885216 -0.355025266
C 4.103878484 -1.877710584 0.677964532
N 5.024984344 -3.661416478 1.506869105
H -0.363784657 0.901762567 2.503019410
H -3.621727241 2.409640634 2.001880746
H -3.407943488 -0.967047313 2.763813029
H -3.231864779 1.403211145 -2.503895524
H -2.965216184 -1.961874791 -1.724938265
H 0.996230864 -1.716625983 -3.224276149
H 0.938294053 1.739032409 -3.532401361
H 1.176150498 0.880017564 2.094660535
H 3.889224380 2.099099993 -0.000660289

