15

C -1.101538895 2.647894261 0.311500224
C 0.068250804 0.010300500 0.066081701
C -1.904727885 -2.085608974 0.379877753
N 1.301083599 -0.237365664 -2.376794057
C 2.362950509 -0.347321230 1.659050034
C 4.537750531 -0.732567223 0.306012535
N 3.653343946 -0.634237838 -2.255098586
H -1.863101849 2.879677315 2.210789044
H -2.646962683 2.903012901 -1.032947373
H 0.317925104 4.106178186 -0.005124333
H -3.446862322 -1.858799320 -0.973386891
H -1.044951027 -3.939949637 0.125750105
H -2.702706145 -1.992644956 2.276069217
H 0.436456097 -0.127301476 -4.079078550
H 2.232940111 -0.284976255 3.702186129

