9

O 3.728045217 0.170012575 -0.739970641
C 1.349472323 -0.531373790 -0.134298962
N 1.200310608 -3.188960683 0.473121168
O -0.819956134 -4.011323610 1.043262576
C -2.690937196 2.260539825 0.014517745
C -0.621296899 0.962804840 -0.086537381
H 4.768261440 -1.321867506 -0.613775014
H -3.899719352 2.457044659 -1.630702121
H -3.273289806 3.201135716 1.741477337

