13

C 3.538187381 -0.436960484 0.165201634
C 0.818363643 -0.176511872 -0.546154150
N -0.058080128 -0.923242932 -2.626858869
C -0.981969743 -1.319809500 -4.726732536
C -3.295697706 0.648365336 1.304283529
O -4.167028633 2.066696104 3.209717189
N -0.800858581 0.947491331 1.253135956
H 4.605547385 -1.194143884 -1.418786192
H 3.765599725 -1.695557502 1.786808786
H 4.342441157 1.399420373 0.669987053
H -1.805185145 -3.217614298 -4.906888461
H -5.962527892 1.836870220 3.266827661
H 0.051872075 2.053738101 2.571040139

