13

C 3.542526476 -0.449883867 0.158884223
C 0.810221814 -0.112707405 -0.513650974
N -0.027705879 -0.619826616 -2.680522046
C -0.850934093 -0.789649613 -4.851456142
C -3.339366933 0.487734080 1.333744208
O -4.262738556 1.710473659 3.347731409
N -0.847615224 0.811248767 1.363238241
H 4.151360309 -2.385468920 -0.201981109
H 3.860473935 -0.051065445 2.154121259
H 4.734376119 0.810524832 -0.957941063
H -1.654367917 -2.657039912 -5.276994384
H -6.055858914 1.456487475 3.348560640
H -0.033557813 1.794018186 2.797130185

