19

C 3.895731406 0.058594171 2.893786351
C 2.037094583 0.491436828 0.813402110
C 2.923592812 1.000491025 -1.797662523
O -0.096032197 -0.728336259 1.130133097
C -2.073214676 -0.794448648 -0.365187514
C -2.599791207 1.425717122 -1.996541231
C -4.201866037 -2.333303994 0.671417538
H 5.225873872 -1.475443621 2.449876720
H 2.925439906 -0.421626206 4.645204176
H 5.020811375 1.753647929 3.239404257
H 2.126103972 2.659715254 -2.733721559
H 2.417870939 -0.640681048 -2.986194865
H 4.973723879 1.211259738 -1.796165916
H -1.570976854 1.519565967 -3.784858472
H -4.613170068 1.493908380 -2.431356932
H -2.084522930 3.148235951 -0.933843181
H -3.492632755 -3.814029286 1.914026736
H -5.259280922 -3.240168123 -0.850651428
H -5.550556107 -1.177411002 1.751334715

