19

C -4.281614293 -1.942908441 0.585055278
C -1.851588636 -0.459537741 0.561832754
C -2.274715398 2.342237939 0.759758776
C 0.337809710 -1.695749196 0.398271062
O 4.224927725 -2.156741988 -1.812964410
C 3.072227066 -0.900127443 0.280300166
C 3.732585152 1.892714972 0.221528285
H -5.544474855 -1.304425391 -0.922219325
H -3.954668544 -3.961398369 0.343647489
H -5.291839921 -1.658848514 2.366599155
H 3.265026204 -1.744971403 -3.297208202
H -3.455268504 2.751313284 2.406170228
H -3.323580634 3.011678200 -0.891367845
H -0.559476455 3.448770851 0.914034014
H 0.202153547 -3.745056720 0.283085641
H 4.010346565 -1.736423812 1.924883988
H 2.851122495 2.847066614 -1.382537711
H 5.776021259 2.070473326 0.024887372
H 3.167899326 2.849146409 1.958175652

