11

O -4.401927090 2.201339752 -0.744595292
C -2.689768211 1.118821272 0.703747464
N -0.332245732 1.650443466 -0.005061405
C 1.505922957 0.271527075 -0.651269939
O 3.871373214 1.159177223 -0.751648657
C 1.358073241 -2.470137192 -1.301417268
N -0.573628009 -3.832382665 -1.055644912
H -3.641372210 3.131262715 -2.138365384
H 3.867957459 2.893035543 -0.192630706
H 3.126431611 -3.296956245 -1.957706811
H -2.090817248 -2.826130962 -0.385008832

