10

C -2.484630201 -1.776593758 0.213319674
C -1.781604405 -0.239278766 -2.061779849
H -2.732592429 -0.757283650 -3.811584944
C -0.839344289 2.343775439 -1.858360394
H -0.625024176 3.187766622 0.002511219
H -1.129239388 3.670514470 -3.397978546
O 0.823004924 0.309939953 -2.389976956
H -1.442434659 -1.133855385 1.871300048
H -2.050626194 -3.769285617 -0.095968192
H -4.505774570 -1.611946967 0.597140057

