13

C 2.824784248 -0.549686275 1.201972868
C 0.451570013 0.910448145 0.545249916
O 1.227075744 3.236426181 -0.536037350
C -1.210893283 -0.514698109 -1.277267683
C -3.530514261 -1.751053940 -0.534424960
N -3.954071371 0.343803278 -1.517843009
H 3.904421690 -0.963056230 -0.506892633
H 2.353435133 -2.327397051 2.134831502
H 4.014837745 0.565866866 2.459899280
H -0.302074044 -1.034655459 -3.048363926
H -0.643214830 1.268234565 2.275210563
H -4.570567496 -3.310391687 0.279619052
H -0.256877313 4.115650911 -1.100468856

