10

N 3.574770684 1.019766288 -0.840095474
C 1.217335113 0.142804808 -1.568804633
C -0.898237018 0.363267117 -0.317683730
C -3.025837672 0.336014791 0.932511869
N -3.837373035 -1.800161402 2.474114650
O -2.255770837 -3.367130430 2.864110791
H 5.037228068 0.049502907 -1.568083910
H 3.776980091 1.354136413 1.022006501
H 1.132505213 -0.699011130 -3.439062648
H -4.423611602 1.830966432 0.876653492

