12

C -3.542845065 0.662977000 0.448818874
C -0.812212301 0.136519447 0.080350663
C 0.357995330 -1.826481262 -1.098172348
O 2.792807966 -2.018398143 -1.260276721
C 3.209106770 1.481007976 0.793064613
O 5.539056878 1.160635714 0.556931013
N 1.035598394 1.866712019 1.062027273
H -4.058009577 0.750846355 2.447116001
H -4.125575525 2.436469000 -0.434979257
H -4.633808731 -0.857423091 -0.415377411
H -0.790934381 -3.312867871 -1.949149526
H 5.041035470 -0.573421405 -0.455621756

