12

C -2.082521558 1.973547743 -1.193636984
C -0.501773724 0.332625397 0.552656792
N 0.369926097 -1.988555928 -0.707242229
C 2.806533614 -2.024793260 -0.591421179
C 3.848176637 0.247116613 0.756403359
N 1.794239737 1.515833115 1.352383767
H -0.977096064 2.502009899 -2.850997395
H -3.808716850 1.015671667 -1.792458935
H -2.597619591 3.690044828 -0.184652642
H -1.598133314 -0.240641674 2.214755352
H -0.752406664 -3.297237663 -1.518898307
H 3.854325712 -3.583741969 -1.416061283

