11

N 4.139583253 1.125383723 1.031615097
C 2.647564617 -0.596042807 0.762856868
C 0.981450938 -2.436414992 0.554113526
N -1.178338064 -2.366832139 -0.970673622
C -2.508360890 -0.389424706 -1.265183300
C -2.301680864 2.048933510 0.137725111
O -3.329115471 3.938712225 -0.596236541
H 5.552391787 1.273375830 -0.262652127
H 1.461576432 -4.252721042 1.363087837
H -4.064806677 -0.473326827 -2.610014550
H -1.250723456 2.012842084 1.942047255

