11

C -0.633450068 2.212498414 -0.125652728
C -2.285707141 0.373190674 -0.185660773
C -1.684877545 -2.306865611 0.063386214
N 0.550969380 -3.083975436 0.486609220
C 2.666430868 -3.625302470 1.198349470
C 1.020453128 4.022044933 -0.087475536
H 1.589828837 4.904842095 1.672623465
H -4.268660731 0.838009009 -0.421093096
H -3.167821243 -3.705365650 -0.107132164
H 4.077079994 -4.032838236 -0.256810624
H 1.882047449 4.708546737 -1.816834361

