11

C -0.427052272 2.427832007 0.233878685
C -2.166560589 0.623439999 -0.036403117
C -1.572639038 -2.053342713 0.078716013
N 0.663248271 -2.904689522 0.299756030
C 2.786245212 -3.666682276 0.808181647
C 1.838379620 3.405938413 0.934569365
H -0.968206603 4.528414169 0.181842052
H -4.111781489 1.134126163 -0.383434331
H -3.092842485 -3.420361483 -0.034391258
H 3.979239537 -4.103539259 -0.831847122
H 2.986484296 4.031517696 -0.684250611

