11

C 4.182874573 0.416639522 -0.250532860
N 1.649503270 1.271587903 -0.791951791
C -0.428500539 0.008838967 -0.080345202
O -0.515499429 -1.967353182 1.080815327
C -2.889866643 1.304517156 -0.880832886
O -2.952496513 3.255292564 -2.029016855
H -4.599469270 0.261704259 -0.293177742
H 1.358659812 2.894526613 -1.744090091
H 5.163032995 1.739636838 0.992027433
H 4.054115286 -1.407352839 0.689575689
H 5.268185274 0.201695685 -1.990407293

