11

N -3.600693134 -1.094399320 -0.693448173
C -1.364051881 -0.405275162 -0.269248481
C -0.619906325 2.199426744 0.631201275
O 2.065289184 2.129909257 0.863531083
C 2.957037109 -0.164832797 0.206015485
O 5.127255811 -0.754136746 0.217727592
N 0.913136583 -1.660109831 -0.465890906
H -3.723428408 -2.915338261 -1.289374969
H -1.461738552 2.629064822 2.461090695
H -1.156848060 3.644651697 -0.734404491
H 1.160474067 -3.458746073 -1.018835730

