16

C -3.068561545 -2.119581450 -0.367434795
C -0.610500931 -0.654256122 -0.783209767
C -0.641052114 1.918705812 0.556375830
C 1.705344205 3.507201674 0.075318304
C 1.576501260 -2.169989762 0.025263994
N 3.270793686 -3.359653276 0.695121922
O 5.048020370 -4.601661655 1.388103899
H -4.665323958 -1.019478917 -1.068924508
H -3.366633244 -2.487736174 1.639665942
H -3.039559314 -3.925673833 -1.357108725
H -0.376248251 -0.318762499 -2.813067587
H -2.322777162 2.927049045 -0.096915946
H -0.889792172 1.605852751 2.584712893
H 1.557756708 5.337306505 1.011807593
H 1.973526993 3.852374853 -1.942742145
H 3.403355913 2.576247752 0.787446590

