13

O -3.386636524 0.635757423 1.016832280
C -2.327357007 -1.536004316 1.340279467
C -0.180023984 -2.341412715 -0.123405333
O 2.958975987 -0.504323721 0.658364462
C 2.802804995 1.843888606 0.654270654
N 0.709561263 3.172956328 0.563323654
H -1.160082837 2.292606210 0.672202171
H -2.489883451 -2.483133784 3.189420926
H -3.000592084 -3.242849134 -0.102341085
H 0.671513763 -4.144763351 0.328174261
H -0.075781608 -1.678065914 -2.057291485
H 4.572764114 2.919958207 0.718467920
H 0.879709860 5.064617022 0.597236698

