17

C 5.719920090 -0.949205880 0.228010310
O 3.496516407 0.130150994 -0.725544056
C 1.341600839 -0.530067894 0.713177480
C -0.989904798 0.535327701 -0.435840651
C -5.263943425 -0.522801312 -1.558503131
C -2.264043775 2.626092699 0.481780290
O -4.508522496 3.053601887 -0.134674734
H 6.112423142 -0.310234826 2.164158823
H 7.270238647 -0.363824738 -0.993113609
H 5.617964226 -3.023278832 0.236998074
H 1.551435253 0.149789406 2.668290831
H 1.206518019 -2.605242878 0.819436006
H -1.160977679 0.333158716 -2.471804139
H -6.484398929 0.571553676 -2.773312134
H -4.287588133 -2.051204866 -2.496311978
H -6.010118698 -0.975137174 0.284482130
H -1.335867258 3.992677078 1.737454167

