18

C -3.151553384 2.109827194 -0.483266068
C -1.274482510 0.450917698 -0.625496588
C -1.746490119 -2.258576740 -1.335134479
H -0.655997486 -2.802022384 -3.002833167
H -3.738829449 -2.579518547 -1.744445208
H -1.195158195 -3.538935221 0.188470134
C 1.423424355 1.236550586 -0.077282788
C 2.565548671 -0.247728468 2.125108540
H 2.824110126 -2.239136220 1.643467353
H 1.365303107 -0.145630610 3.800048979
H 4.420057179 0.510016067 2.620635869
C 3.098006237 1.037111423 -2.427023299
H 2.283643012 2.074052241 -4.013303363
H 4.972390734 1.812230440 -2.045748905
H 3.351237286 -0.927836970 -3.009472115
H 1.356511383 3.228401856 0.475450917
H -2.812302362 4.063515918 0.034166588
H -5.089876594 1.578603486 -0.881930723

