15

C 4.296701545 -0.410677096 -1.284215903
O 2.246640285 -1.869573499 -0.400658694
C 0.195792653 -0.400746263 2.030662220
C -1.746826792 0.056062788 0.274772226
C -4.500950496 0.067918911 0.293829717
N -3.057606689 2.348282342 -0.451625363
H 4.978854598 -1.191008828 -3.068433819
H 5.841961986 -0.471534403 0.081472556
H 3.739206449 1.564124820 -1.596911115
H 1.457830031 1.098368123 2.648165437
H 0.131692160 -2.048246273 3.244842719
H 0.222463303 -1.223122551 -1.171316068
H -5.491722470 0.127026143 2.090706756
H -5.544783523 -0.828356042 -1.224821792
H -3.102457090 3.608168777 0.995335946

