12

O -3.613851637 2.090107165 -1.345465914
C -2.836500890 -0.009792145 0.108873094
C -0.034428410 -0.381598632 0.013762932
N 1.591258188 1.485371032 -0.510092431
N 3.984293289 0.638185476 -0.407019531
C 3.662937632 -1.745654539 0.198284370
N 1.218440962 -2.475287811 0.471493641
H -3.648702817 1.612081836 -3.093456268
H -3.758367290 -1.765751719 -0.468693313
H -3.409557371 0.380934167 2.052049857
H 1.195699280 3.289706367 -0.950383028
H 5.238394781 -3.016223860 0.441645247

