10

C -2.289202738 0.889731928 1.324104658
C -3.091798355 3.147287724 2.809106079
H -1.437723478 4.236830600 3.386943907
H -4.071585540 2.550170476 4.523786192
H -4.338711556 4.350207251 1.702561054
C -2.977128243 0.380103538 -1.037770880
H -2.324164296 -1.299424211 -2.012342270
H -4.215739442 1.644349590 -2.053007570
O -0.733553982 -0.613512229 2.715512668
H -0.238131494 -2.048015027 1.720287517

