14

O -2.041320408 3.253850930 -0.753651389
C -1.477963646 1.084643779 0.371630138
C -2.285105887 -1.233742963 -0.864039457
C 0.314804392 -2.439714624 -1.266862095
C 2.400943207 -0.511744222 -0.447720395
C 1.075124851 0.884503641 1.672595610
H -0.948787286 4.583473060 -0.163003278
H 0.902082441 -0.320772430 3.346421130
H -3.436930129 -0.772235447 -2.508520459
H -3.355783702 -2.476029472 0.386037883
H 0.488400170 -4.114061481 -0.055167568
H 2.928667577 0.768764511 -1.988241025
H 4.105835749 -1.485740663 0.167655519
H 1.806455286 2.732004422 2.248242017

