10

O -3.104819380 -1.895335210 0.493369961
C -0.889567125 -1.027894453 -0.624825660
C -0.605437410 1.805449177 -0.921067329
N 1.533063317 2.570563040 -0.127855714
C 2.685750994 0.312559907 0.835463642
N 1.427977688 -1.724307890 0.688298216
H -3.016145494 -1.569190382 2.276867739
H -1.991806446 3.047943991 -1.779809297
H 4.556031080 0.433238611 1.660524550
H -0.808419961 -1.875345819 -2.517197004

