13

N 3.769681836 1.763324990 0.657285618
C 1.837893375 0.447928133 0.242077148
C 1.785861769 -2.362750765 -0.217286965
H 2.307847513 -2.711378420 -2.185323888
H 3.150734906 -3.325670444 0.978328751
C -0.969197179 -3.048479029 0.281304782
H -1.262100401 -3.455285228 2.282140264
H -1.635678412 -4.662091865 -0.808649241
C -2.314382696 -0.603475893 -0.437838035
H -2.752083631 -0.530189064 -2.458114490
H -4.038180889 -0.248768271 0.629391503
O -0.560253586 1.371306105 0.141351136
H 3.302795026 3.615501973 0.876325757

