16

N 4.261512464 1.609043875 0.356985517
C 2.240130802 0.529628136 -0.243653180
C 1.726662848 -2.253408226 -0.017642672
C -1.092336193 -2.478866782 0.536307052
C -2.423328185 -0.503420980 -0.989932085
C -1.592557715 3.085768427 0.865337397
O 0.165041045 1.738015869 -1.230280493
H 4.155605900 3.504664206 0.038125621
H 2.179189686 -3.140386256 -1.829969640
H 2.937351246 -3.090914473 1.415100376
H -1.485711466 -2.192834567 2.535944467
H -1.831305506 -4.326229310 -0.025670455
H -2.313063969 -0.795356681 -3.027433810
H -4.309110867 -0.023145668 -0.396364348
H -0.237510493 3.768251559 2.274401590
H -2.259723520 4.721633185 -0.206816125

