18

C -2.021767242 -2.320319459 -1.738315674
C -2.013915581 0.442484059 -1.239081004
C -2.985893038 1.483807019 1.180084719
N 1.900050435 0.214416414 0.341241263
C 3.535082674 -0.847042013 2.236695091
C 2.648268465 1.749394647 -1.388608891
O 1.101581697 2.591668730 -2.977207422
H -1.531874735 -3.428028026 -0.077447307
H -3.933387790 -2.825261404 -2.370864248
H -0.734970388 -2.783187975 -3.276000164
H -2.628080936 1.525758089 -2.854851586
H -2.305673969 3.404627378 1.467976897
H -5.052767419 1.589887154 1.016455015
H -2.481092634 0.324961424 2.800842023
H 2.898160046 -0.326029384 4.134601387
H 3.538261175 -2.913029488 2.130847676
H 5.494819165 -0.206037463 2.035008647
H 4.639291393 2.341167712 -1.500542698

