16

C -3.827710393 0.947356254 0.733690892
C -1.257867830 -0.301461640 0.936617469
O -1.689356517 -2.935643198 1.280298331
C 0.306019754 0.203615609 -1.407739571
C 3.009458906 0.173838438 -1.185620841
O 3.973721197 -1.700688279 0.307233223
H -4.956427877 0.515721132 2.402850243
H -3.633686391 2.992264117 0.562340543
H -4.827057510 0.237534284 -0.926245084
H -0.262999610 0.454151133 2.596337903
H -0.068360748 -3.751637257 1.307198639
H 1.285019642 1.972395936 -3.549261686
H -0.569836104 -0.594471632 -3.075642425
H 4.123485791 1.883924609 -1.090718682
H 2.819658139 1.156202851 -4.012767474
H 5.537801042 -1.189906117 1.075080764

