14

O 3.608681724 2.033606054 0.459415967
C 3.071483477 -1.185875917 -0.518393639
C 0.437100796 -1.732284329 0.343842471
C -1.523073279 -0.282334003 -1.118542877
C -3.680837817 0.914736104 0.107414754
O -1.555529231 2.385482092 -0.634409122
H 1.914159471 2.749684699 0.433644808
H 3.865332913 1.302245837 -1.372577003
H 4.446105013 -2.063852595 0.742352660
H 0.163353898 -3.759344221 -0.000192336
H 0.153499581 -1.429142704 2.379464826
H -1.657248388 -0.732563066 -3.118100791
H -3.928686831 0.699011186 2.133689030
H -5.390570987 1.292400269 -0.960259115

