9

O 4.039800989 0.556399735 -0.236205032
C 1.620292432 0.480080954 -0.078284286
C -0.635814946 1.776877350 0.155705723
N -2.401470724 -0.124846382 0.153435802
N -1.462812502 -2.402877701 -0.054768156
N 0.954909016 -1.989455646 -0.190492066
H 3.317087988 -2.083557355 -0.355893028
H -1.141922342 3.735586849 0.315265920
H -4.290071800 0.051794086 0.291235104

