15

C -1.911986305 3.975389674 -0.128289500
C -1.310646463 1.410562973 -0.952139585
C 0.085480760 -2.844882317 0.630391697
C -1.397583068 -0.438760939 1.120283542
O 2.724181088 -2.314433662 0.660846958
C 3.882296814 -1.965673669 -1.570485109
O 6.043342861 -1.362213026 -1.715447720
H 0.043775487 4.669510117 0.147040081
H -2.900242468 4.211353029 1.683174580
H -2.701961121 5.173082690 -1.605237456
H -0.463554713 -3.644147046 -1.194527498
H -0.233647061 -4.253772108 2.099286906
H -3.440159558 -0.892407534 1.089384327
H -1.023637637 0.321451825 3.019201011
H 2.638460389 -2.307527828 -3.206536383

