15

C -0.398218811 3.589692755 0.574495639
C -0.617391402 0.912476180 -0.228108236
C -0.352173783 -2.723798928 1.027401348
C -2.600822922 -1.013743391 0.474899381
O 1.415306885 -0.669412047 0.459877211
C 3.379282768 -1.278068530 -2.362387635
O 2.703878645 0.035072296 -3.992879354
H 1.296038370 4.454989579 -0.232420477
H -0.327291570 3.869795066 2.640313719
H -2.009704704 4.655138731 -0.148462308
H -0.030928694 -4.308791843 -0.250538869
H -0.081912031 -3.291230393 2.986665464
H -3.873607438 -1.657649426 -1.021037885
H -3.732636798 -0.585256609 2.159386547
H 5.246684481 -2.168446404 -2.070646765

