9

O 5.013195458 -1.302408297 2.454980058
C 3.402886883 -0.115355364 1.553353155
N 1.975089022 1.380520391 0.594354771
C -0.611213830 1.291224085 -0.124214060
C -1.886113063 -1.212191241 0.371799250
O -0.840907811 -2.989947408 1.298010526
H -0.815357353 1.713853377 -2.141584004
H -1.687502771 2.756026979 0.868871506
H -3.900953702 -1.293985958 -0.191257631

