8

C -0.603723145 0.717000396 -1.443963448
C -2.391617466 -0.963922424 -0.898672392
H -2.902011950 -2.397760285 -2.258262819
H -3.400742592 -0.937011156 0.884320036
N 0.138270920 2.742096013 0.039216352
H 1.931526980 3.323141688 -0.188240533
H -0.387067368 2.668230454 1.866023422
H 0.358295305 0.635994092 -3.254471214

