19

C -5.209571280 0.700892125 0.034299814
C -3.254470666 -0.837950503 1.315751880
C 0.405569714 -0.715465599 -2.422958989
C 1.008820219 -0.260485802 -0.025456708
C 5.494306331 0.406493922 -1.067810874
C 3.830939444 -0.062688263 0.990530826
C -0.904132019 0.151326887 2.185961992
H -5.722879250 -0.056060124 -1.826408148
H -4.597648840 2.654379782 -0.214468004
H -6.970899339 0.723851939 1.131414047
H -3.574769814 -2.855664849 1.483909367
H -1.530385707 -0.876011685 -3.051410485
H 1.886683174 -0.926431826 -3.817778522
H 5.779769795 2.306798223 -1.765778950
H 6.326988957 -1.126201729 -2.134135818
H 3.749002582 1.463922603 2.390405679
H 4.161832605 -1.845288251 1.987327040
H -0.922584079 2.180448924 2.588938019
H -0.086399809 -0.842806135 3.809752666

