12

N 2.894960796 -0.253474748 0.130285372
C 0.524932375 0.266693420 -1.293905115
C -1.507335678 -1.749494802 -1.530573243
O -3.285264244 -0.014852170 -0.336044233
C -1.259655341 1.493457189 0.348911322
N -1.051490783 3.148753528 2.066324546
H 3.095850022 1.285749567 1.295155226
H 2.834388951 -1.824980574 1.269372143
H 4.442735385 -0.378395414 -0.995118250
H -2.143956593 -2.287166993 -3.416619353
H -1.288513103 -3.453874415 -0.355104067
H -2.690913140 3.422712246 3.020623729

