12

N 3.064643104 -0.380127802 0.491520222
C 0.645030120 0.054382085 -1.074141324
C -1.472201455 -1.863209714 -1.314848251
O -3.226709304 0.050941593 -0.407605384
C -1.214399084 1.581323558 0.262602919
N -1.131563770 3.459902736 1.716179176
H 2.954830816 0.138110520 2.338210139
H 3.932985202 -2.040641127 0.148592831
H 3.072758759 0.916944456 -1.269867364
H -1.979587307 -2.503671611 -3.205422087
H -1.393315443 -3.461578715 0.001312925
H -2.864747099 3.883013757 2.425109290

