12

O 4.726079824 -0.347749442 -0.647713475
C 2.509981312 -0.331532172 -0.155344105
N 0.950656037 1.749281263 -0.357607236
C -1.735685723 1.510985911 -0.430660779
C -1.386428468 -2.089483839 1.337238425
N 1.055777117 -2.453662106 0.530796063
H 1.766130364 3.221679571 -1.243165817
H -2.524266866 1.959655553 -2.291760577
H -2.721387827 2.542160362 1.048040540
H -1.420932505 -0.911028725 3.030569546
H -2.623784153 -0.773551301 -0.305715489
H 1.396526881 -3.944262615 -0.609616936

