14

O 4.222426805 -0.101420429 0.195994967
C 1.647477578 0.114254542 0.705873103
C 0.314687115 2.295958962 -0.615900313
N -2.326745964 1.496521456 -0.445952481
C -2.427065572 -1.177322676 -1.089933935
C 0.136655280 -2.132403506 -0.257574924
O 0.970990869 -4.232110744 -0.465620788
H 4.593018047 -1.881444230 0.066930377
H 1.279055553 0.258888416 2.748918415
H 0.590550337 4.106099970 0.324636429
H 1.041802214 2.433931589 -2.559269564
H -3.498658865 2.569405432 -1.495442063
H -2.589352851 -1.578331630 -3.123689807
H -3.954840584 -2.172027132 -0.124036124

