9

C -2.026577350 0.101857882 0.595160588
N 0.202839479 0.359165467 -0.961600008
C 2.529300039 -0.366791173 -0.191740627
O 3.019173534 -1.320038005 1.825617997
H -1.515948086 -1.015230964 2.243595445
H -2.722680834 1.937683292 1.232089415
H -3.528575969 -0.867097601 -0.432427768
H 0.054596531 1.167919191 -2.671176708
H 3.987872638 0.002531912 -1.639518354

