18

C 3.522301285 1.893826358 -0.716911428
C 2.490827728 -0.370843332 0.734142404
C 0.209783165 -1.533206898 -0.521823303
C -1.682044184 -3.039288270 0.961333159
C -2.426543913 -0.533418228 -0.145112882
C -3.013415123 1.691419059 1.534245095
H 4.041454424 1.361829733 -2.643662635
H 2.111083975 3.394153684 -0.849334383
H 5.200602186 2.676851404 0.191661749
H 2.024294467 0.190302961 2.667125796
H 3.961311630 -1.815049175 0.911828628
H 0.593286830 -2.229599415 -2.414437023
H -1.420290716 -3.116695118 2.992649055
H -2.447835778 -4.752887876 0.148951218
H -3.620452545 -0.640099107 -1.808742119
H -4.966250579 1.603260689 2.197746683
H -2.773481623 3.479264360 0.529750893
H -1.804631190 1.740179152 3.203914143

