18

C 3.816740665 1.695983050 -0.710197874
C 2.579844789 -0.438383164 0.767170754
C 0.720918951 -1.989500508 -0.730638531
C -1.400737191 -2.955500119 0.815463556
C -2.544012369 -0.579310113 -0.342759753
C -3.239663603 1.584852055 1.384132772
H 4.561071925 0.992898048 -2.499207095
H 2.442406142 3.178467620 -1.142044362
H 5.356576042 2.566067136 0.351258947
H 1.882629768 0.250175248 2.603371804
H 4.009177032 -1.869733351 1.232368300
H -0.928266599 -0.021799181 -1.795831548
H -1.229324405 -2.828720208 2.869609988
H -2.276698949 -4.715503103 0.225582787
H -3.970648030 -1.044958718 -1.747934833
H -4.838373908 1.062426118 2.578505880
H -3.766730405 3.258794737 0.302110175
H -1.679738832 2.093216199 2.631022730

