13

O -5.697703374 -1.440206880 0.888853715
C -3.525932054 -0.867310497 0.683950164
C -1.875864398 1.220729931 1.580754732
C 0.143506029 0.202448590 0.428367842
C 2.852074634 0.927159919 0.231118381
O 3.796570843 0.651793696 -2.249610557
C -1.226816153 -2.070207668 -0.675995380
H -2.168969234 2.893388318 2.719996100
H 2.935226608 1.821889435 -3.333408495
H 3.134239506 2.847009809 0.954931164
H 3.971752159 -0.349778309 1.408212796
H -1.361734831 -2.138941165 -2.731996636
H -0.652129443 -3.917703082 0.039980633

