13

N -2.453901686 -1.476506610 -0.650197860
C -1.466960810 0.933731517 -0.870619918
O 1.069374320 0.998952259 -1.410265152
C -2.759605043 3.090001849 -0.761141696
C 2.685193373 -0.157874448 0.346787591
O 2.858044751 -2.782834955 0.037744974
H -4.108481384 -1.596828836 0.272811276
H -1.202474761 -2.845294901 -0.223294442
H -4.784001026 3.087324428 -0.490214175
H -1.790814458 4.864246526 -1.020546083
H 4.519896304 0.747268196 0.076549706
H 2.010936522 0.152282370 2.273873638
H 3.630010723 -3.123350450 -1.569471385

