13

N -3.348880948 -1.754830236 -1.579831260
C -1.323937361 -0.197412129 -1.198610119
O 0.807209780 -1.021404680 -2.020237773
C -1.565342163 2.106390084 0.024727029
C 3.098599857 0.646111478 0.874367869
O 3.616642819 -1.640480074 1.570553083
H -5.072218918 -1.235977148 -0.994680514
H -3.013243214 -3.593990351 -1.886676900
H -3.366588136 2.679890027 0.811900912
H -0.324859643 3.616491566 -0.576175700
H 3.931925179 1.463989877 -0.799719491
H 2.495601743 1.854188748 2.403216888
H 3.645084275 -2.678122887 0.054507676

