12

N 4.071657274 -0.327493411 1.539701603
C 1.813596656 -0.092449125 0.744724720
C 0.291362963 2.180884713 0.131647789
C -1.932349804 1.477641485 -0.790282369
C -2.119694456 -1.350147276 -0.866103095
N 0.245285090 -2.098325810 0.250965418
H -2.333319641 -2.028380792 -2.814301012
H 4.875907610 1.392489462 1.789082108
H 0.971306472 4.086800689 0.405387317
H -3.445709854 2.701911591 -1.411134030
H -3.752599165 -2.032149302 0.211181411
H 0.930097744 -3.864289293 0.198501065

