12

C 3.007615610 -0.374102372 -0.032144884
C 0.191636068 -0.449804347 -0.441449434
C -1.434981598 1.681334913 0.545793515
O -4.038017560 1.127922193 0.545845237
C -0.858669290 -2.278438177 -1.738749612
O -1.769568815 -3.933539799 -2.851355064
H 3.452310894 -0.354803393 1.985633108
H 3.943932499 -2.004345195 -0.870704578
H 3.829198156 1.323951515 -0.875705625
H -4.344598260 -0.210643765 1.730608558
H -1.219684402 3.362382456 -0.636727703
H -0.764428648 2.185675037 2.445822672

