12

C 2.956019983 -0.565785570 0.172933789
C 0.140392100 -0.293033972 0.131175320
C -1.595295532 1.966721579 0.490638494
O -3.769299544 0.343468022 0.245906224
C -1.512409933 -1.559327316 -1.524203184
O -2.118217294 -3.054061544 -2.999682993
H 3.699748137 0.002354504 2.008507562
H 3.498467095 -2.526741236 -0.150772007
H 3.865661801 0.594112603 -1.273929179
H -2.113502031 -1.095446777 1.402694097
H -1.554390482 3.367615315 -1.024757338
H -1.502425848 2.895715364 2.328363003

