14

C 3.681170806 0.040003178 0.649558943
N 1.120044756 -0.918002042 0.839222874
C -0.584997622 -0.437294682 -0.865699657
C -3.222460331 -1.348131279 -0.603193285
C -0.656587931 4.010478033 -0.731606619
N -2.285824474 3.848917712 0.747895831
H 4.402395798 -0.290731284 -1.247763597
H 4.877208082 -0.932487945 2.008739394
H 3.654358880 2.076394462 1.005530641
H 0.484118505 -1.319316565 2.592432576
H 0.106058706 0.072963252 -2.718634420
H -4.486024362 -0.134342917 -1.670191708
H -3.308087506 -3.263130204 -1.384147096
H -3.832726614 -1.373543975 1.360168267

