17

O 6.130715180 0.139611624 -0.996239670
C 3.677921006 0.883765760 -1.022597608
C -2.318137884 -2.925430778 0.586199601
C -2.752723965 -0.114720454 0.662395947
C -2.122600042 1.491115705 -1.586497742
C -0.576160752 1.725677280 0.783542869
C 2.087882258 0.861024437 0.915704361
H 6.574865127 -0.408586076 0.676975279
H 3.125817185 1.530564456 -2.885691841
H -2.131410153 -3.706447594 2.488730113
H -0.596953787 -3.384345779 -0.453168608
H -4.414095339 0.457735925 1.718278775
H -3.893260079 -3.886247305 -0.338939917
H -1.274131852 0.541197701 -3.189198713
H -3.369585166 3.031814044 -2.088267025
H -0.959849819 3.401258733 1.904707968
H 2.763281997 0.210216271 2.748552753

