14

C 4.545203044 -0.596265454 -0.566872824
O 2.267525519 -0.721116655 0.786472266
C 0.368009253 0.726295373 -0.289859081
C -2.045640095 0.600441276 1.253111276
C -4.305599869 1.858171780 0.043441629
H -5.680992299 2.348117898 1.490452525
H -5.181065725 0.521872833 -1.266239147
H -3.775185947 3.533656498 -1.036151725
O -2.157846495 -0.437789809 3.265725988
H -0.070376424 0.112755347 -2.233738822
H 0.912116017 2.735707774 -0.424250431
H 4.320434030 -1.299646953 -2.506347879
H 5.276038881 1.344180183 -0.650205683
H 5.906413703 -1.780916942 0.420819671

