16

C 4.847374711 -0.607259484 -0.962277021
O 2.631441852 -0.634988361 0.577690864
C 0.565027790 0.251275088 -0.363891540
C -1.705842015 0.493933307 1.266860810
C -3.997776485 1.408508520 -0.249459911
O -2.087409713 -1.436706276 2.782032445
H 4.717242123 -2.120070549 -2.356318440
H 5.056378666 1.220349774 -1.896317924
H 6.432089723 -0.947792365 0.296448461
H -1.047377057 -3.144711215 -1.121697491
H 0.747171820 1.329753635 -2.123814380
H -0.923256954 2.208105179 2.290677310
H -5.496290581 1.867499412 1.083678564
H -4.666628266 -0.121761876 -1.459264088
H -3.600723823 3.077364532 -1.405428833
H -1.584527570 -3.153779123 0.351290959

