18

C -4.324416968 -0.533851523 -0.634775238
C -2.230386921 0.563272915 1.010208412
C 0.303227495 0.719956363 -0.330997530
C 2.522712586 1.738987018 1.218273343
C 4.698555113 0.640615852 -0.307420533
C 1.450411439 -1.792440718 -1.170553205
H -4.558934134 0.561685583 -2.369420043
H -3.918462090 -2.484740202 -1.175797572
H -6.130928039 -0.533549866 0.358704789
H -2.761459715 2.460813586 1.639122117
H -2.020847833 -0.576242615 2.725669927
H 0.114217768 1.901613144 -2.019223028
H 2.608343144 3.801753720 1.265988172
H 2.384956068 1.048258558 3.169058825
H 5.746626229 -0.744798608 0.841282638
H 3.467082014 -1.176028327 -1.923584083
H 1.593310866 -3.177385336 0.345367272
H 0.663306021 -2.661758445 -2.867775631

