17

C -4.303207098 -0.581663521 0.320341762
C -1.756768585 0.257737989 -0.674338242
C -0.138409381 2.033286521 1.002839595
C 2.127667248 0.412943085 0.330386563
C 4.687708690 1.277415951 -0.250162719
O 4.244916757 0.020252157 1.957827602
C 0.437791869 -1.688640538 -0.665485064
H -4.120509226 -1.403383696 2.206818578
H -5.610788898 1.010282678 0.450055038
H -5.157175429 -2.003115399 -0.908856334
H -1.959066185 1.070839292 -2.560455556
H -0.051218154 4.028885194 0.507892091
H -0.605982199 1.838458800 3.004871444
H 5.242951327 -0.960101115 -2.124725001
H 6.181129502 0.507472760 -1.801936271
H 0.161960206 -3.135903240 0.783204759
H 0.929417329 -2.591497577 -2.447752574

