14

C 4.816689962 0.769041923 -0.204691600
C 2.032920235 0.695756530 -0.213916582
C -0.081643746 -0.185991040 -0.752697833
C -2.460496528 -1.605855416 -1.052417977
C -3.829881991 -0.157121713 1.071610792
O -2.542770290 2.131459021 1.044592338
H 5.513955797 0.700515843 1.732652637
H 5.607257378 -0.819337419 -1.249473478
H 5.489504102 2.524118617 -1.047371634
H -3.300002578 -1.202160537 -2.891339987
H -2.171056399 -3.640657062 -0.838926679
H -5.846652022 0.049128004 0.637592215
H -3.673278403 -1.192088694 2.875245341
H 0.373822485 1.947597324 0.925393063

