8

O -0.414582082 -2.440334511 -2.346881809
C -1.976233195 -1.071926830 -1.482760451
C -4.631527132 -0.679867335 -0.813697493
H -5.383465257 -1.642169187 0.830271960
H -5.985699733 -0.352490520 -2.314668045
C -2.571564689 1.384832217 -0.358709778
H -2.601398249 3.038479940 -1.566599020
H -2.004220832 1.742942536 1.576318297

