15

O 0.258090763 -1.018068199 -2.942491793
C -0.791145502 -0.333647966 -0.933430465
C 1.821523509 -1.044517807 1.818719703
C 3.545075168 0.579798475 0.764282194
O 4.430094327 0.309111648 -1.500610426
C -3.250566473 -0.932155353 0.252530508
C -2.438243472 1.827578153 -0.249688171
H 2.967706295 -0.511697791 -2.531801526
H 1.142830015 -0.627797727 3.702430074
H 1.774342263 -3.001371879 1.232813406
H 4.080340906 2.332139866 1.706835596
H -3.393770126 -1.525411267 2.201999946
H -4.639522771 -1.761692739 -1.002674395
H -3.317435018 2.817585960 -1.811111382
H -2.045910477 2.978925939 1.392158666

