12

N 2.929578954 4.037235969 -2.582752133
C 2.356888362 2.065891855 -1.890243796
C 1.571016160 -0.454305883 -1.014541819
O 2.303007565 -1.056446023 1.494557085
C -0.107494538 -1.656348293 2.561051141
C -1.756698363 0.571956414 1.864957182
C -1.257327557 -0.764339378 -0.557651093
H 2.353107096 -1.868616863 -2.301369494
H -1.085756110 -2.964845457 0.557864632
H -3.685710949 0.426845895 2.540153189
H -0.917721682 2.426162661 2.101738542
H -2.675400982 -1.115025738 -1.993839470

