16

C -1.364185636 2.315206919 -1.269295741
C -0.130499308 0.035401506 -0.043065649
C -2.017434043 -2.081548557 0.414238681
C 1.571303021 0.584710195 2.256601617
O 3.703550020 -0.602117653 1.081291500
C 2.357506246 -0.876283200 -1.252986630
H -2.199910098 1.809196580 -3.089266500
H 0.004170833 3.824682088 -1.595769286
H -2.872806517 3.067698791 -0.075841720
H -2.864112567 -2.711683856 -1.361478943
H -1.105704116 -3.709527224 1.296146897
H -3.543777833 -1.455144768 1.656956804
H 1.046727502 -0.343376106 4.028216968
H 1.918185627 2.594578662 2.614650350
H 2.384970524 -2.826465632 -1.939616274
H 3.112016345 0.374672257 -2.720782075

