16

C -1.522284923 2.159140259 -1.376123641
C -0.247820007 -0.073578546 -0.160489867
C -2.015178863 -2.245628034 0.449307179
C 1.620198645 0.462186532 2.004503082
O 3.574891380 -1.218264896 1.362427378
C 3.398496086 -1.077632820 -1.275268409
H -2.588105065 1.602863450 -3.051622343
H -0.169505826 3.617881100 -1.909220823
H -2.865199689 2.994070318 -0.039494690
H -3.125994952 -2.819249770 -1.190801885
H -0.963511182 -3.876288675 1.145165528
H -3.327091480 -1.648043438 1.932822973
H 0.877394416 0.048834397 3.893043252
H 2.280230942 2.430393701 1.932978403
H 1.094696801 -1.374608779 -1.783379066
H 3.751368424 0.913136110 -1.836405234

