19

C -3.557631831 -0.629259997 1.105086213
C -2.360003084 -0.616120202 -1.269760689
C 0.268842284 0.284845562 -2.811244720
C 1.991823794 2.384977648 -1.974126037
C 2.315448294 1.884714854 0.860532277
C 1.899394077 -0.977471402 1.131234996
C 0.160321908 -1.760593353 -1.012585763
H -2.631888319 0.114615159 2.769862911
H -5.602744107 -0.665983989 1.205885282
H -2.551235979 -3.539328020 1.440897103
H -3.490619176 -1.398846407 -2.787615528
H -0.261671945 0.121174266 -4.780226241
H 3.782692600 2.202243778 -2.996175227
H 1.232253859 4.253817820 -2.399705437
H 4.144293962 2.495855760 1.584184811
H 0.866238134 2.916520909 1.905579793
H 1.199983591 -1.545802697 2.985208749
H 3.673351063 -1.996001242 0.830824024
H -1.136595374 -4.100666119 0.398827303

