11

C 1.237099438 -0.271329598 -0.285443622
C -1.550462856 -0.416582074 -0.250013374
H -1.735233663 -2.501533726 -0.260741727
H -2.494727613 0.243110261 -1.955889083
C -2.457115505 0.651094251 2.283186795
H -4.098430347 -0.305900456 3.077040142
H -2.887180170 2.675794688 2.110386931
O -0.373983150 0.262277111 3.912231758
C 1.805717480 0.345311620 2.346337492
H 2.494190609 2.320445750 2.089635281
H 3.355857685 -0.699823428 3.213178241

