12

C 3.177778229 -1.230813018 -0.095210374
C 0.563910244 -0.222403398 -0.144216112
C -1.509693962 -0.152080283 1.770835366
C -3.239496136 1.200610602 -0.169062118
C -0.917718261 0.948392334 -1.835051812
O -1.771565235 -0.844778386 3.902300397
H 4.292209043 -0.279121015 1.356307103
H 4.113060739 -0.984042792 -1.914334837
H 3.163263828 -3.240711853 0.370418125
H -3.798765193 3.116973664 0.351340867
H -4.904296380 0.124385629 -0.741625247
H -0.587508407 1.522375460 -3.771954496

