19

C -2.811753585 -3.063074858 -2.114455643
C -1.613317547 -0.532307088 -1.450103848
C -1.913392507 0.155102163 1.335315288
C -0.126993904 2.359735877 1.673533349
O 2.034834717 1.804648443 0.079926779
C 1.233185475 -0.658792259 -1.828471843
C 4.289822243 1.168606787 1.416869462
H -4.854034919 -3.030328852 -1.800326337
H -2.487017303 -3.531080480 -4.097324158
H -1.973020169 -4.564640767 -0.975441590
H -2.569539772 0.949298873 -2.564187369
H -1.329715198 -1.439598162 2.511227473
H -3.845312436 0.676321642 1.841118003
H 0.529487749 2.657901306 3.603579407
H -0.927727555 4.115605104 0.949200381
H 1.733203077 0.274530794 -3.617072430
H 4.896234261 2.814993710 2.502444234
H 3.955739508 -0.465729126 2.628292302
H 5.689079665 0.676959556 0.000121018

