10

C -2.974427408 0.467450723 -2.301429776
H -0.932781722 0.342025216 -2.302105315
H -3.803444703 1.158061888 -4.038710787
C -4.382337017 -1.492773770 -0.786823736
H -6.182794747 -2.170181947 -1.477836940
H -3.255453210 -2.875156977 0.212089934
C -4.205708474 1.145254515 0.154229412
O -2.704975159 1.518102166 2.290278086
H -1.876229871 3.122310988 2.133462717
H -5.905835617 2.296076768 0.086465987

