10

O 4.435235913 -3.264723186 0.232342602
C 2.539971246 -2.400410777 0.880721525
O 0.985623661 2.217038689 -1.168250913
C -0.527867932 1.040677090 0.688175176
C -1.468895927 1.401733927 -1.889231375
C 0.380619792 -1.443283335 1.635918199
H -1.222817587 2.313515066 2.145968565
H -1.516182412 -0.213680498 -3.153485988
H -2.802419869 2.909440388 -2.291710707
H -0.694169254 -2.517161137 3.001616183

