13

C 2.925720398 1.317546836 1.517191072
C 0.549784201 0.633676400 1.206714493
C -1.992952452 1.855124446 1.725896356
H -2.379936728 3.696731548 0.888122543
H -2.428164807 1.910636398 3.741966848
C -3.250259959 -0.416732496 0.437237877
H -5.001207489 -1.223847072 1.145038444
O -3.277146756 -0.091537937 -2.287433387
C -1.107547506 -1.271032645 -2.726128923
C -0.671815401 -1.730363517 0.110919780
H -0.094776228 -3.590225544 0.756031537
H 3.412106800 3.144423485 2.303874779
H 4.461499440 0.067034652 1.000795233

