15

C 3.189549711 0.803947395 0.494196546
C 0.632217286 0.370246386 0.558156935
C -1.767134659 1.738385613 1.325661566
C -3.217246368 -0.591734496 0.279489058
O -2.897448942 -0.331826194 -2.425551221
C -0.428777195 -1.119061664 -2.173280248
C -0.775391819 -2.189672393 0.367872342
H 3.824008968 -0.063499144 -2.911041289
H 3.927450081 2.694297904 0.780105703
H 4.527391317 -0.719632936 0.719698453
H -2.254205142 3.536116657 0.443915280
H -1.915792553 1.873358602 3.378644966
H -5.120476476 -1.079504575 0.880139754
H 2.289222164 -0.680218465 -3.309432065
H -0.240866703 -3.918960921 1.311905380

