16

C -4.053936518 -1.363982774 0.092887976
C -1.812670595 -0.258701390 -1.278597540
O -0.481839854 1.354094064 0.415540438
C 1.699056595 2.337944368 -0.567069847
C 4.460665390 -0.470151803 0.886106639
O 2.856663267 -2.302799771 1.615116737
H -3.437616327 -2.527398086 1.679045378
H -5.152182679 -2.550594776 -1.186081254
H -5.279149465 0.130052105 0.810622493
H -2.422112807 0.858386833 -2.916894243
H -0.546448532 -1.752726177 -1.944599973
H 2.304355866 3.976507258 0.508251025
H 1.563923867 2.771362900 -2.590249980
H 4.815775713 0.904386338 2.398870253
H 3.658364117 0.695023732 -0.959011687
H 1.832743701 -1.802504492 3.039903489

