17

C 3.275923158 0.314215988 -0.210795151
C 0.461009667 -0.169786563 0.136846690
C -0.311832608 -2.267597404 2.048840478
C -2.169364678 -3.393828047 0.199573315
C -0.863286628 -1.885833421 -1.824527172
C -2.778748989 3.296966732 -0.557130492
C -0.882640806 2.264098123 0.705614192
H 3.613234075 1.547849668 -1.831069423
H 4.078846378 1.228888332 1.458210792
H 4.297698584 -1.453670876 -0.516753980
H -1.029203731 -1.781657752 3.921875862
H 1.190062189 -3.676288963 2.316928497
H -3.596639671 2.430771589 -2.222264576
H -1.974714063 -1.159434113 -3.401346492
H 0.509159095 -3.220213541 -2.637714420
H -3.600412566 5.069614875 0.051093659
H -0.161335576 3.241897052 2.367265056

