17

C 3.694736545 0.049175625 0.074994915
C 0.838575927 0.001376099 0.014576648
C -0.732468863 -1.696833842 1.829684329
C -2.798588884 -1.737444775 -0.203593575
C -0.655208034 -1.361577247 -2.120257462
C -2.989997731 2.330328469 0.138664456
C -0.516729924 2.517750240 0.202904845
H 4.457096983 1.150372082 -1.496486893
H 4.392500569 0.875938590 1.833723940
H 4.453430063 -1.863875540 -0.067401277
H -1.172190180 -1.018019463 3.721684134
H 0.066360057 -3.601153490 1.932074169
H -4.214115468 0.146616669 -0.074497917
H -1.022263769 -0.369098170 -3.884952011
H 0.151507488 -3.224315683 -2.513224630
H -4.444511803 3.764672871 0.240307835
H 0.509439587 4.283951620 0.372102759

