10

N -0.196882420 2.615134952 0.176392743
C 1.963193139 0.950217601 0.453482095
C 0.929933961 -1.664879386 0.679125485
C -1.585113725 -1.493865597 0.541134924
C -2.155533017 1.199853805 0.231175412
H 3.217475290 1.171277763 -1.177493791
H 3.059757330 1.516419365 2.114702196
H 2.051099363 -3.356930804 0.907161779
H -2.952158838 -3.007784911 0.637519309
H -4.040573736 1.992817658 0.059995913

