21

C 2.365726970 -2.670658790 2.416570260
C 1.930206005 -0.781276161 -1.403626696
C 0.246388898 1.213141849 -1.576251628
C 1.148605358 3.886485392 -1.174891449
C -2.415627967 0.821393781 -2.456904914
C -2.725511474 0.544741996 0.292101581
C -2.676301758 -1.764988062 1.617358916
H 3.969388395 -3.518856824 1.454723851
H 2.967821776 -1.014527570 3.480009384
H 1.630580101 -4.082837423 3.735752862
H 3.920107399 -0.347645337 -1.246401898
H 1.486170821 -2.572631629 -2.286203761
H 1.913980400 4.661473716 -2.932020858
H 2.630103132 3.978491527 0.256530416
H -0.378758374 5.137393852 -0.575992983
H -3.290819075 2.465652097 -3.320373674
H -2.731598716 -0.887230119 -3.554796430
H -2.962780818 2.275903866 1.357920948
H -3.332872927 -1.696139991 3.560570072
H -0.293201440 -2.244185909 1.803183509
H -3.328052878 -3.435870919 0.603062119

