15

C 3.453460263 -0.086904649 0.081894589
C 1.123436210 0.575778669 -1.469871196
N -1.213145704 0.311402299 -0.052908344
C -2.381092882 -2.146145330 0.092821023
C -2.140114250 2.316734876 1.231706821
O -1.196826256 4.401052335 1.285636789
H 5.156622968 0.084470002 -1.068171112
H 3.366652254 -2.021450221 0.795611718
H 3.625529162 1.194300051 1.686699751
H 0.989152422 -0.630484917 -3.142123443
H 1.234694440 2.531341226 -2.106276871
H -1.106970705 -3.541436463 0.930249035
H -2.934777572 -2.812880297 -1.783138919
H -4.071441902 -2.039932517 1.264856170
H -3.905178431 1.864154899 2.253014010

