15

C 3.494794243 1.608605647 -0.605109713
C 1.883520982 -0.218399862 -1.615878731
N -1.077247883 -0.764541881 0.486794584
C -3.308310078 -1.809063089 -0.667556733
C -1.297312575 0.756987096 2.368094816
O 0.602479327 1.877163906 3.376908251
H 5.306485506 0.990375094 0.126059094
H 2.098189429 1.865389495 1.845238154
H 3.427064172 3.501763647 -1.383948543
H 2.435566769 -2.188881619 -1.570751032
H 0.679582988 0.254145015 -3.208566062
H -3.165301822 -3.864745945 -0.778032541
H -3.543114766 -1.089535657 -2.591427166
H -5.015160565 -1.328480621 0.402310579
H -3.170326396 1.184002744 3.170179697

