12

O 1.047253961 4.038837361 0.064567879
C 0.530296532 1.815363739 -0.064373898
C -2.025738822 1.015996813 -0.895801577
C -2.738388578 -1.350373609 -1.325814520
O 1.774519160 -2.174832488 2.070987634
C 2.567485980 -0.141411286 0.540225550
H -3.307343748 2.584675836 -1.214670883
H 1.348351659 -1.539731725 3.713790729
H -4.624107406 -1.765084003 -2.008032863
H -1.490310531 -2.936131390 -0.992505609
H 3.214151866 -0.966714419 -1.240447994
H 4.153399551 0.890191131 1.371894982

