20

C 6.556464089 -0.333996583 -0.070301478
C 2.037951007 -1.394713198 0.605081348
C 1.058236576 0.875030161 -0.822759958
N -1.575840461 0.106297491 -1.012137671
C -3.392005047 2.052004863 -1.694026333
C -3.290483460 1.029651861 0.910621660
C -5.218518321 -0.788538190 1.921364278
H 6.698499003 1.716348893 -0.103097769
H 6.357124099 -1.077701209 -1.971977210
H 8.202193406 -1.165344760 0.843366893
H 2.290428773 -2.908602370 -0.801951182
H 4.922299782 -0.861045658 1.217934667
H 1.795893002 1.137605981 -2.740236125
H 1.291426135 2.651192003 0.232690689
H -4.876290186 1.464048648 -2.978872139
H -2.667243847 3.946683676 -2.010140248
H -2.443499613 2.277277923 2.309534188
H -6.792502126 0.217734622 2.798466581
H -5.957862007 -1.969374811 0.402502008
H -4.362774156 -2.021897085 3.336342332

