15

C -2.236110712 -2.180902930 0.874283700
C -0.709052794 -0.167089093 -0.385446285
C -1.759847383 1.439360018 -2.426667595
N -1.035444930 2.456767852 0.035721153
C 2.601386193 -0.799912451 0.478701586
O 2.063517225 -1.531306552 -1.788232090
N 4.734083778 0.530163534 0.700092185
H -4.241225423 -1.871720058 0.477559435
H -1.706097355 -4.022150399 0.129032201
H -1.918734290 -2.170384753 2.906514922
H -0.586794676 2.056849043 -3.982071387
H -3.749318506 1.196694939 -2.867494459
H -2.456613292 2.849274362 1.255157623
H 5.291520557 1.178093287 2.389662563
H 5.769062985 0.961433806 -0.851313947

