15

O 5.319813083 -0.217911859 2.685997282
C 4.451479923 0.225827544 0.296201040
C 2.335422491 1.337897202 -0.300409006
C 0.214923465 2.431127916 -0.915545549
C -2.274935192 1.101481674 -1.329438826
C -2.229149849 -1.667070561 -0.758984272
C -2.848247258 -3.465620367 -2.381163368
H -2.793325600 -5.443544092 -1.857173589
H -3.427174853 -3.027143832 -4.299119526
H -1.634903246 -2.185628871 1.138386816
H -2.878943459 1.413494109 -3.283191347
H -3.695698642 2.031856584 -0.141463159
H 0.188446928 4.472349057 -1.176189615
H 5.752477520 -0.465147771 -1.124550487
H 4.116350147 0.440484766 3.874971612

