17

C 3.631519424 0.619933990 2.104277371
C 1.248345765 1.228336400 0.614490710
C 0.188434041 -1.103622563 -0.729040919
O -0.347872293 -3.026394650 0.998825779
H -2.116904823 -3.429845036 0.763472333
C -2.170166319 -0.469632639 -2.249177299
C -1.995262075 1.521843805 -4.265891016
H -0.156124127 1.509967424 -5.195298991
H -3.496598629 1.242691553 -5.642308471
H -2.243812669 3.376657919 -3.391927020
O -4.120078728 -1.567307422 -1.791850028
H 1.608807999 -1.774593805 -2.098090634
H -0.213479091 1.959488596 1.882071959
H 1.647480904 2.700482127 -0.780652230
H 3.258639534 -0.846554823 3.500943449
H 5.131045676 -0.055015634 0.855036499
H 4.331820877 2.291938759 3.086578307

