17

C -2.577443967 -2.337760082 -0.267874574
C -0.950738334 -1.286743620 -2.051002646
C 0.168227275 1.298826775 -1.727082348
C -1.088200849 3.202770272 -0.015358560
C 2.021242143 -0.559123511 -0.704724150
C 1.813925241 -1.469340108 1.911570867
C 3.634946952 -0.707864723 3.240051602
H -3.693526213 -1.164814352 0.982324256
H -3.271566772 -4.243009135 -0.549542788
H -0.170876009 -2.489170022 2.173633853
H -0.570769420 -2.293420058 -3.790205906
H 0.812010780 2.143453245 -3.485448848
H 0.206563374 4.764219694 0.358769475
H -2.789082919 3.961542120 -0.901817161
H -1.615206102 2.393815444 1.802710492
H 3.702765557 -0.993787543 -1.781190838
H 4.674286305 -0.139711912 4.879461089

