12

C -4.338338675 -0.048348605 -1.729657837
N -1.942019892 -0.879687674 -0.957170414
C 0.154317908 0.324744918 -0.809687759
N 2.215126456 -0.715023535 0.458143085
C 4.387767240 0.550113939 0.997652524
O 6.177289106 -0.373511682 2.063056680
H -3.387550168 -1.267751721 0.570106901
H -4.541511351 1.782445163 -2.639199707
H -5.558790721 -1.581164216 -2.303729157
H 0.416348938 2.181856127 -1.641301802
H 2.125492853 -2.541467928 0.999256637
H 4.346859355 2.534717487 0.352431182

