8

O 3.666779124 0.323104655 0.655112036
C 1.223510568 0.007535529 0.212554032
N 0.158805799 -2.191215393 -0.065085153
O -2.356330099 -1.568540354 -0.479157048
C -2.481000075 0.925301789 -0.397074960
N -0.356376288 2.036287576 0.020429791
H 4.456920463 -1.314598183 0.731154464
H -4.312309493 1.782124382 -0.677933181

