12

N -3.498122920 0.164244620 -0.780320980
C -0.951095209 0.180521247 -0.217500750
C 0.630402185 2.121160146 0.103756944
N 3.106183687 1.089402582 0.474136007
C 3.312371345 -1.382215173 0.437247401
C 0.608785135 -2.191543355 -0.054070998
H -4.444129247 1.776398909 -0.435121705
H -4.446217640 -1.374562028 -0.193199627
H 0.309698579 4.134813508 0.097567051
H 4.611081883 2.218365730 0.763368115
H 0.540798893 -3.288793025 -1.806343660
H -0.007005687 -3.471524344 1.450630269

