12

N -3.667368209 0.166126031 -0.625130718
C -1.076958490 0.100033408 -0.104721271
C 0.612729202 2.031940507 -0.003774709
N 2.986409878 1.029278848 0.371531230
C 3.024085405 -1.530720245 0.709624833
C 0.402048908 -2.152709596 0.279446312
H -4.432232287 1.904269438 -0.491370177
H -4.676026100 -1.073889764 0.409918597
H 0.310135332 4.041118241 -0.200008708
H 4.567921653 2.074041261 0.400481437
H 2.186701064 -2.570411295 -1.367239944
H -0.338951123 -4.042001121 0.534757930

