13

C -2.798887725 -1.149518266 -0.041305728
C -0.254671228 0.104973379 0.185092324
C -0.044185784 2.642894159 1.277590599
C 1.699901680 -0.821765433 -1.631210476
C 3.978729160 -1.432155173 -0.870810667
O 5.992811679 -1.974040621 -0.229136511
O 0.649764111 0.457396889 2.682315887
H -4.111263874 -0.375765539 1.344477002
H -2.616294072 -3.178670784 0.276323842
H -3.581350162 -0.859743354 -1.928685153
H -1.731017854 3.601681310 1.951078804
H 1.514332465 3.853083613 0.715800288
H 1.278528905 -1.070744711 -3.615068299

