16

C -4.941775432 0.054759255 -0.504633806
C -2.342852913 -1.146641101 -0.233804494
C -0.194400152 0.557754423 0.085821080
C 2.233011448 -0.524927613 -0.660724768
C 4.512304651 0.756557731 0.573755339
O 4.260133058 3.391801485 0.506161914
H -5.126605443 0.955269406 -2.350163640
H -5.218435588 1.504003562 0.932880479
H -6.440618945 -1.351266845 -0.331443392
H -2.189450823 -2.048495207 1.658036215
H -2.042837480 -2.700648385 -1.585697594
H 4.691701227 0.064474186 2.524085113
H 2.364481471 -2.600996815 -0.672182329
H 2.181013555 0.068130523 -2.673051826
H 6.251641041 0.259483453 -0.419690730
H 2.486620858 3.718717831 0.822507963

