13

C -1.762971006 -1.228017376 0.711924252
C 0.704464785 0.347922617 0.627601157
O 2.171196390 0.162456372 -1.597126185
C 3.862115106 -1.724740826 -1.625153885
O 4.196992868 -3.210831844 0.037116016
C -1.457926483 1.927851897 0.534508411
C -3.393060005 3.467371973 0.384439987
H -2.065094958 -2.305622171 -1.005007659
H -3.712425289 0.744378200 0.424309882
H -2.104994389 -2.189036897 2.486802649
H 1.839764052 0.271956383 2.332849591
H 4.895169948 -1.682773959 -3.423291144
H -3.117119362 5.490791289 0.135708660

