8

O 3.694676452 0.170415351 0.477314130
C 1.253439351 0.427543241 0.187997060
N -0.618058872 -1.614662409 0.505140366
O -1.970440787 -1.345748693 -1.959620820
C -2.214126583 0.499913799 -0.160855831
N -0.126657249 2.336840409 -0.315590008
H 4.087496221 -1.579578131 0.792135869
H -4.030495732 0.918698103 0.681046732

