9

C 4.597361658 1.453811718 -1.821271608
C 4.443346145 -1.039103251 -0.499567639
C 2.676816916 -2.767845855 -0.886359088
H 2.672741174 -4.542734533 0.133176672
H 1.166938461 -2.469604271 -2.242137805
H 5.918090510 -1.424511023 0.879484415
H 3.046357339 1.697248637 -3.157276836
H 6.376559535 1.626935046 -2.856490961
H 4.536995888 3.012402437 -0.467165242

