20

C 5.433963917 1.468553320 -0.800799092
C 3.439517958 -0.471596669 -0.159659937
C 1.765889632 -1.343611772 -1.921058332
N -1.992872554 0.468016073 -1.495090007
C -2.040893953 2.166148327 0.276283383
C -3.092448515 -0.270492582 0.977602322
C -5.865760686 -0.880432567 1.096008932
H 4.759442637 2.750326885 -2.269766243
H 7.144725022 0.551454775 -1.505085430
H 5.965866604 2.605251174 0.835716450
H 3.818085073 -1.660956995 1.471902595
H 1.732664807 1.321702835 1.427345896
H 0.785396841 -3.116188332 -1.659838882
H 1.757103312 -0.587539700 -3.818803207
H -2.371938595 4.183260870 0.234889990
H 0.418448160 2.247756471 1.722960100
H -1.887024213 -1.446176128 2.175786856
H -6.595463879 -0.635935530 3.012297709
H -6.940410309 0.341526990 -0.168710497
H -6.206283589 -2.839227746 0.537685399

