16

C -3.683850778 -1.033261578 0.134167909
C -2.482068073 1.161966062 1.480507973
N -0.417400628 0.842487679 3.263491859
C 0.089513057 2.160956644 0.860138004
C 1.732858220 1.093833877 -1.081042472
C 4.454247162 -1.843886622 -1.522929981
O 1.951116429 -1.394443175 -1.346951201
H -4.654981732 -0.385757239 -1.566895442
H -5.085227377 -1.926459925 1.358396082
H -2.304893266 -2.455286893 -0.422243315
H -3.825401110 2.588358799 2.098027272
H 0.267705689 -0.947239771 3.136087204
H 0.367760792 4.179991096 1.079214067
H 2.930587123 2.248775600 -2.261725477
H 5.029854300 -3.241609832 -2.891024932
H 5.676618301 -0.977726269 -0.150232660

