16

C 2.846653331 -0.943788640 1.148976727
C 1.036436261 -0.227372509 -0.951462893
C -1.853425563 -1.167850839 -0.348206340
C -2.699026036 1.603558019 -0.257773667
C -0.035558769 2.483839237 -1.034016070
C -1.555653027 -2.334932749 -2.747439100
H 3.064334606 -2.991831276 1.267461799
H 2.191070488 -0.255524930 2.979692525
H 4.708399490 -0.129359388 0.785368212
H 1.805091924 -0.829776133 -2.781020686
H -1.960532953 -2.260812607 1.398594714
H -4.199129600 2.047868989 -1.593505734
H -3.255299556 2.222383742 1.626250965
H 0.886144056 3.749991060 0.305127066
H 0.059153190 3.314853066 -2.912591185
H -0.763426791 -4.235632740 -2.394221527

