12

N 0.623451016 3.854990177 1.765611275
C 1.316365568 1.636848908 0.957569637
C -0.734264802 0.376505821 -0.536669993
C -0.634691410 -2.511325965 -0.347310213
C 1.604696239 -3.588084957 -1.551962524
N 3.312971125 -4.465874855 -2.555726403
H 1.845127643 4.930746064 2.754030691
H -1.114229728 4.637849475 1.470250993
H -0.413062459 0.927540718 -2.507954675
H -2.648565227 1.020129437 -0.029056278
H -0.645632338 -3.096489883 1.630867755
H -2.292615394 -3.349733064 -1.246009817

