11

N -3.038902974 -0.500119156 -0.444384386
C -0.589739417 -0.502495921 0.729425913
C 0.191544114 2.244314939 1.145685769
O 2.168091835 3.103010175 0.468440562
C 3.398956083 -1.415858647 -1.377403817
O 5.407770820 -1.260859607 -2.245794179
N 1.320077085 -1.922853666 -0.581570320
H -3.830937951 -2.235279365 -0.400856264
H -2.925001168 0.057333516 -2.269650668
H -1.254644675 3.388714126 2.125592744
H -0.819308147 -1.320806822 2.619266989

