11

C 3.010424499 0.223911192 0.167197109
C 0.963640080 0.840634727 -1.348646248
N -0.724698574 2.587115265 -0.477118109
C -2.561647293 1.125398709 0.320071550
C -1.913781280 -1.447712589 -0.117281600
O -0.193976966 -1.346052674 -2.106004240
H 0.655975527 -1.147638593 1.511726003
H 3.904644262 1.691104344 1.276003853
H 4.126103893 -1.424229888 -0.305534170
H -4.166597190 1.838407550 1.365654199
H -3.187522677 -3.046947878 -0.092828733

