10

O -3.341204919 1.917327086 1.746747859
C -2.535854535 0.506280494 0.180962196
C 0.841353163 -1.168175740 -2.628961152
N 1.183106050 -2.481412187 -4.316129669
O 3.450410812 -1.694313628 1.941425743
C 1.825484885 -0.142527547 1.876624049
C 0.279649061 0.488443313 -0.506381954
H -3.736600649 -0.872412021 -0.826412100
H 1.267490977 1.005540675 3.528074927
H 0.766165155 2.441249554 -0.995951808

