8

O -4.066112969 -0.745698684 -0.023193138
C -2.119244701 -1.300272585 0.972183627
C -0.002430944 -2.640260958 -0.455205733
C 2.480704201 -2.165188327 0.635396561
N 4.404888990 -1.753437867 1.541575834
H -0.390561868 -4.670604495 -0.377417670
H -0.055649827 -2.072720078 -2.435203583
H -1.755964582 -0.916737701 2.995474006

