11

C -3.399371520 0.373956126 -0.718795447
C -1.233824693 -1.451248323 -0.533202081
O -1.289465752 -3.618456030 -1.235392637
C 1.190961302 -0.436233147 0.468070553
O 1.553638673 -0.470127861 2.778656601
C 4.840463869 1.031416922 0.294992768
O 6.158644425 1.688184037 -1.271610088
H -3.956585368 0.977743182 1.175621733
H -4.985442996 -0.534947432 -1.660092048
H -2.825356533 2.057054286 -1.766082195
H 3.691467451 0.396704574 2.602215008

