14

O 4.251436973 2.987775394 -0.168010958
N 3.669262735 0.547199150 -0.870924995
C 1.351975945 0.074958727 -0.697049216
C -0.029083528 -2.393970288 -1.240564628
C -2.346406014 -1.159863988 -0.153777975
C -1.150490625 1.337405174 0.155391102
O -1.671771066 2.869294782 1.933831104
H 6.053932131 3.050026129 -0.355129446
H 0.632804178 -3.934707461 -0.037949008
H -0.125731510 -3.068868720 -3.185685542
H -2.345346803 -1.110393509 3.380201061
H -4.329138770 -1.666436842 -0.253962675
H -2.056546649 1.736710087 -1.815012325
H -2.154142424 0.451496162 3.622470319

