17

C 3.927406372 0.382240516 -0.047250013
C 2.003581084 -1.035473181 -1.636313152
C -0.726060348 -0.625669593 -0.905355692
C -2.651946080 -1.982952305 -2.502656185
O -2.302564594 1.373027872 5.306757986
C -1.387538456 0.791307772 1.001539823
C -2.040431216 2.244864755 2.876672027
H 5.846315650 -0.044227887 -0.670509789
H 3.765903914 -0.131173411 1.943666694
H 3.644373624 2.420649045 -0.185995897
H 2.375556608 -3.071795018 -1.551703273
H 2.212702448 -0.523723857 -3.632951345
H -4.568669361 -1.595266808 -1.865379082
H -2.482738963 -1.408461806 -4.480780240
H -2.334001360 -4.023749410 -2.432421774
H -2.810700894 2.747408297 6.367597244
H -2.406159154 4.244925469 2.588066288

