17

C 3.905983643 0.619384798 0.190299540
C 1.796673856 -0.937245482 -0.981284888
C -0.849662402 0.012450234 -0.477020485
C -2.888902032 -1.669853655 -1.535432787
O -1.164414032 -0.079334992 2.668774941
C -1.313173613 2.760022257 -0.597634353
C -1.692422371 2.946156576 1.809092267
H 5.738519115 -0.204809991 -0.270802232
H 3.727747490 0.678472037 2.242718480
H 3.866522401 2.555684319 -0.510823774
H 1.909374495 -2.906469002 -0.360544665
H 1.991873399 -0.951752796 -3.040744814
H -4.758502139 -1.026756555 -0.951077540
H -2.816233994 -1.551037730 -3.591924824
H -2.606204012 -3.640690945 -0.988985900
H -2.734193953 -0.904765757 3.097234208
H -2.047950984 4.062477136 3.471148024

