17

C -2.505160431 -1.389572500 -0.652853586
C -0.833468753 0.025036415 0.959736171
O -1.299558363 -0.246014071 3.350700622
C 0.093509658 2.623195087 0.041743993
C 2.740559816 2.235921022 -0.871951910
C 3.428818707 -0.167261832 -0.956513545
C 1.446347734 -2.023818331 -0.196594993
H -3.044253998 -3.264290458 -0.042140874
H -2.735794003 -0.959448535 -2.649290410
H -5.061064261 -0.342558591 1.474709575
H -4.049557909 -0.218546581 2.764198589
H -1.125529308 3.397660052 -1.441903042
H -0.005653645 3.908485697 1.649738447
H 3.965295929 3.791395564 -1.392539597
H 5.269697339 -0.830462539 -1.563026587
H 1.851825815 -3.158747855 1.468381204
H 1.028879776 -3.311719768 -1.758591717

