18

C -2.992656916 -0.838853074 -2.190996392
C -2.799996238 -0.443069382 0.647117776
N -0.092119103 -0.617734104 1.024027960
C 0.756332910 0.312220777 3.442995224
C 0.941934440 0.727625665 -1.135744468
O -0.675537443 0.104117314 -3.165722834
C 3.623938882 -0.005613620 -1.772769727
H -3.161197469 -2.844134137 -2.664493786
H -4.571969238 0.183950476 -3.039525865
H 0.831231204 2.798517225 -0.810715241
H -3.805891502 -1.874332208 1.738485768
H -3.535187346 1.433911862 1.186482594
H -0.140895070 -0.767782780 4.952035001
H 2.794700356 0.071976796 3.630509516
H 0.303859381 2.328515258 3.729703735
H 4.213279529 0.945702611 -3.502547959
H 3.735373745 -2.044077140 -2.048624842
H 4.918125264 0.546980603 -0.265113609

