14

O 1.923030979 -0.441872109 3.753553534
C -1.961058543 0.055373341 -0.599251845
C -0.660584966 2.552445158 -0.107362787
O 1.924502584 1.872664827 0.108538914
C 1.995033324 -0.564138315 1.122387827
N -0.233966973 -1.928068838 0.267836061
C -0.703949305 -1.626096934 -2.433071651
H 0.893780798 -1.827229669 4.317824980
H -3.943010559 -0.157071125 -0.141221123
H -0.833600996 3.912707402 -1.644945062
H -1.358188722 3.402039417 1.644921138
H 3.739866266 -1.452426038 0.459737712
H 0.799590990 -0.826421303 -3.574406193
H -1.745114058 -3.166621323 -3.284514099

