16

C 2.440703461 0.549512987 -3.910864843
N 1.680966946 0.695157827 -1.306914594
C 0.464640663 -2.493604870 2.279207674
C 0.032145999 -1.040081033 -0.570957902
C -2.034453351 -0.238674980 1.146345813
O -2.075575247 -2.049532647 2.963155910
C -2.842472198 2.342640791 1.777959539
H 4.370446879 1.255494882 -4.127881483
H 1.245751001 1.703636932 -5.161867109
H 2.375834643 -1.396718178 -4.665322351
H 0.945657125 -4.485115612 2.142079981
H 1.785986302 -1.336331507 3.334821065
H -0.516958108 -2.610256832 -1.834179080
H -4.659503639 2.260333978 2.752423423
H -1.479199017 3.245811582 3.046567987
H -2.941651942 3.474104557 0.061614048

