14

C 3.398125907 0.634008576 0.292302383
C 1.202797337 -0.824296514 -0.835100210
N -1.056815843 0.739754116 -1.010234453
C -3.504321845 -0.432059384 -0.594926489
C -2.807539326 0.919465238 1.759015602
H 3.782620375 2.337517800 -0.804815478
H 2.994206945 1.189394039 2.237898488
H 5.102801130 -0.523358592 0.297452681
H 0.808664548 -2.520374068 0.290873278
H 1.667781060 -1.438839966 -2.754108208
H -3.379809019 -2.482467428 -0.619985032
H -5.013973382 0.292307675 -1.783624579
H -1.232306450 2.446892767 0.272277636
H -1.776427916 -0.372341053 3.012013494

