11

C 0.273122079 2.636280345 -0.870490793
H 0.785342757 4.126617842 -2.171335379
C -2.034810887 1.848139186 -0.337642091
H -3.782474375 2.568274128 -1.114233640
C -1.912652962 -0.258744041 1.548738897
H -2.696774314 -2.026965991 0.799545958
H -2.930021395 0.186886525 3.299220892
O 0.697968851 -0.569003509 2.074888803
C 2.161518460 1.133400055 0.608705540
H 3.313873073 2.320840438 1.857427946
H 3.454328743 0.073031320 -0.618759412

