14

O 1.002068568 -2.030833222 -3.198823844
C 0.662336818 0.952824063 -1.332921610
C -1.905247485 0.481663902 -0.736412532
C -1.984619648 -0.085533880 2.073740908
O 0.559660665 -0.723056742 2.696178918
C 2.153068493 0.630985392 1.053590193
H 1.996027811 -3.321666568 -2.378922323
H 1.332507288 2.168545614 -2.831536315
H -1.049174508 -1.636582759 -2.145161841
H -3.417010073 1.501450806 -1.662237870
H -3.161227667 -1.697842351 2.589251524
H -2.602334835 1.553188390 3.195023416
H 2.553667528 2.544064922 1.779771087
H 3.942015240 -0.370464876 0.860586360

