10

C 2.877260658 1.763687534 -0.207918553
C 1.528111459 -0.467277851 -1.310712245
C -0.726612677 -0.459020920 -2.410705381
O -2.281796618 1.548086280 -2.772420674
H -1.508008874 3.046977528 -2.102650751
H -1.563522187 -2.169342436 -3.160471474
H 2.476460046 -2.278625978 -1.208979746
H 1.813327086 3.526964505 -0.367079489
H 3.265439732 1.479275362 1.800038816
H 4.692420325 2.071670071 -1.142890071

