14

C 3.002944925 1.221750118 0.183387602
C 1.373679544 -0.907960434 -0.520750959
O -0.514359319 -2.584705183 2.802784586
C -2.058296857 -1.021669847 1.695793435
C -1.089274024 -0.564604132 -1.471064936
O -1.686712450 1.840804819 -2.339123368
H 1.884147105 2.730464351 1.034433416
H 4.532488948 0.644070385 1.424873113
H 3.784579964 2.015678506 -1.564796864
H 2.131842277 -2.799039205 -0.469904041
H -1.928685814 1.024618859 2.160197031
H -4.095839135 -1.548817453 1.628884998
H -1.872908753 -2.109154924 -2.585334746
H -3.416705298 2.204086242 -1.924720810

