16

C -0.253269712 3.110607290 -3.124241324
C 0.964568200 0.304009086 1.844045359
C 0.965082905 -1.440783133 4.082724228
O 2.736894258 -3.245625255 3.142347149
C -0.563474813 0.276115500 -2.755483645
C -0.935706867 -0.489677474 0.002709111
H -1.954614199 4.124465066 -2.534613967
H 1.321478903 3.819317061 -2.001423546
H 0.093885959 3.563174436 -5.105780888
H -0.855682635 -2.330267696 4.562260922
H 1.795580952 -0.620765130 5.775455154
H 1.893970185 -4.308291595 1.936933713
H 1.105726131 -0.707782369 -3.474960528
H -2.168106348 -0.413747598 -3.861046560
H -2.475770277 0.678420031 0.847745860
H -1.629876839 -2.451932837 0.176873735

