16

C 0.732144680 2.005140392 -1.995088787
C -0.567989501 0.859247490 1.119432560
C 1.370642206 -0.908335771 2.196800970
O 3.774689062 0.262955693 2.339731822
C -1.725883638 -0.479086277 -1.881891755
C -2.980599859 -0.491798503 0.611775098
H -0.196815788 3.812232553 -2.258899449
H 2.503096662 2.275637528 -0.994731177
H 1.288596289 1.242659787 -3.848788984
H 1.531137005 -2.745359494 1.213345996
H 0.648589041 -1.303729348 4.105671683
H 5.002981677 -0.986152331 2.791282995
H -0.781632696 -2.213844088 -2.418077165
H -2.754590674 0.411075261 -3.408517001
H -4.713926674 0.596271539 0.785441628
H -3.154431645 -2.373361577 1.428713604

