11

O -0.726084064 2.423229919 -1.808232082
C -0.344677031 1.383784193 0.594981121
C -0.864112608 -2.918772309 -1.279516929
C -0.252922041 -1.472058195 0.660121946
C 1.964612626 2.421433545 1.792618730
N 3.775645566 3.199925554 2.692498828
H 0.686365801 1.988671032 -2.866071023
H -1.942906306 2.024457021 1.741194785
H -0.783924442 -4.957064733 -1.132181465
H -1.488912606 -2.123586649 -3.059626599
H 0.341343120 -2.287680450 2.445885090

