16

C -1.824772061 -1.935412710 1.219481086
C -1.251315677 0.267788346 -0.540959936
N -0.551713989 2.550097797 0.856558995
C 0.674955766 -0.288896681 -2.570258851
C 1.654615017 -2.522114525 -3.107065887
C 1.526308604 2.766221201 2.330077004
O 3.076308496 1.130200635 2.693705474
H -0.124758585 -2.530065812 2.216390532
H -3.239176527 -1.373920163 2.609194390
H -2.574417666 -3.533720465 0.155491654
H -3.002661032 0.780006587 -1.518864973
H -1.696988497 4.058513775 0.753603201
H 1.236548904 1.351623360 -3.672282347
H 3.002721918 -2.739780777 -4.630565715
H 1.187218397 -4.207157686 -2.042804618
H 1.670108031 4.660039811 3.204659413

