14

C -3.148637310 -0.023569968 1.212923567
C -0.478899100 0.949561224 1.302489895
C 1.306726510 -2.426877147 -1.634325047
O 3.247728369 -0.903866437 -1.711372148
C 2.834033456 1.454761003 -0.715504810
O 0.392037612 2.297936523 -0.917947221
H -3.509899050 -1.126482316 2.917488448
H -4.480629043 1.561645481 1.196026561
H -3.553779738 -1.212278679 -0.416451078
H -0.320619646 2.261016773 2.894731270
H 1.807985114 -4.406268150 -1.750917086
H -0.489119759 -1.757254604 -2.327279737
H 2.103498426 0.448643262 1.551827843
H 4.307401874 2.769309316 -1.280340699

