16

C 3.140926887 2.138386152 -0.194798770
C 1.225230918 0.108919241 0.554835231
C 0.318948315 0.281768048 3.167611842
C -3.533129888 -1.190915211 -0.394496826
C -1.422614947 0.734195033 -0.736788248
C 2.059883830 -2.402620490 -0.300950885
N 2.726203624 -4.371808332 -0.922166582
H 3.428290831 2.164055039 -2.237496297
H 4.955507146 1.783584970 0.711769351
H 2.450304460 3.973489573 0.433651989
H -4.314936288 -1.168726274 1.511741215
H -0.339678819 -1.615521951 3.736480671
H -2.884989430 -3.103528149 -0.813142235
H -5.069257339 -0.752971749 -1.696633815
H -0.925907692 0.903325011 -2.733338360
H -1.997455820 2.604576523 -0.090494279

