8

C -4.035548387 0.511015865 1.393722471
C -4.841672841 2.726040446 0.540774119
H -5.797012923 4.077260217 1.744060536
H -4.566034554 3.258997429 -1.421358790
C -2.748686508 -1.282445343 -0.307991400
O -1.975951909 -3.321112198 0.331329518
H -2.529218572 -0.614149463 -2.285801098
H -4.281125308 -0.079722707 3.340836517

