17

C 4.126409084 -1.795200720 0.957684835
C 2.677551359 0.256441183 -0.418845323
O 0.962386568 -0.348636820 -1.945944154
C -2.792921236 -0.506357520 -0.391932505
C -2.765305497 0.792521789 1.851198483
C -3.576144401 0.760948340 -2.759119214
O -4.449185266 -0.337126271 -4.540422094
H 5.319010063 -2.783794256 -0.405570451
H 5.322000139 -1.028612455 2.451259187
H 2.814197606 -3.169049792 1.758422530
H 1.534737897 1.449966824 1.760214444
H 3.717713479 2.024656689 -0.789335635
H -2.737513332 -2.548337253 -0.455112872
H -2.944049362 -0.227691513 3.618515878
H -0.121463923 1.325148694 2.115385974
H -3.401207824 2.745205992 1.874766505
H -3.358277933 2.845296129 -2.754807104

