18

C -3.658645743 -0.137491597 -1.306304270
C -3.006968946 2.221486027 0.207617047
C -0.871990763 1.836765284 2.081043660
N 1.339431017 -2.808426458 2.056632424
C 2.398383176 -1.037264226 0.853750635
O 1.446864348 1.314046591 0.784162794
C 4.784058228 -1.149272110 -0.676454546
H -5.220603803 0.226778454 -2.602583580
H -2.045952108 -0.766593462 -2.428226468
H -4.190977038 -1.695323006 -0.064150854
H -2.504750115 3.768290960 -1.068599834
H -4.659379106 2.854799713 1.278888463
H -0.527719040 3.564834220 3.152877912
H -1.279760326 0.296727631 3.386080850
H 2.343033741 -4.428543750 1.894307690
H 4.362651211 -0.699295647 -2.644045872
H 5.644563009 -3.014216083 -0.578013912
H 6.122894208 0.260261397 0.006757037

