9

O -3.342221497 2.678634531 0.625671974
C -1.383954023 1.641497011 0.321402408
C -0.811777361 -1.134394467 -0.036257589
N 1.901321673 -1.020559047 -0.290058730
C 2.901677601 1.270061741 -0.138496176
O 0.910282737 2.876783691 0.231144780
H -1.434377566 -2.212197778 1.606786465
H -1.759258053 -1.853140422 -1.719622087
H 3.007529420 -2.536909418 -0.563296196

