9

O -3.028156385 2.873984818 0.941310982
C -1.265295928 1.617822031 0.383225195
C -1.032714124 -1.169519997 -0.171201156
N 1.618639564 -1.479576357 -0.879733821
C 2.772497284 0.744431113 -0.643944435
O 1.155704247 2.596724919 0.098534685
H -1.524313526 -2.324661823 1.461414993
H -2.262685817 -1.712836648 -1.731546259
H 3.567475528 -1.179411806 0.536127037

