12

N 1.098294499 2.982808079 0.229222758
C 1.054514988 0.153028056 0.271066718
C 3.270475720 1.199425593 0.329332398
O 1.891466543 -4.625971545 0.371144271
N -0.374725226 -4.057906077 0.282835970
C -0.921268433 -1.553289584 0.227635729
N -3.446614333 -0.650094567 0.121412976
H 0.485703229 3.887193019 1.802167687
H 0.593463028 3.838588847 -1.407880242
H 5.276346359 1.422099997 0.397417587
H -4.346891292 -1.279620165 -1.441556012
H -4.459096974 -1.226484525 1.635405403

