13

O 3.587029016 2.730198240 -1.194998097
C 3.112264618 0.327071417 -0.117864127
C 0.378655592 -0.224514298 0.210543137
C -1.132977531 -0.340232093 2.274321693
C -3.624146298 -0.865906261 1.371031188
C -3.420033030 -1.022666980 -1.168064095
O -1.007873712 -0.641767659 -1.904612045
H 2.658602942 3.967181630 -0.248313055
H 4.031840555 0.132430041 1.727821855
H 3.965423107 -1.041751532 -1.402056900
H -0.544011976 -0.088814652 4.208799593
H -5.327197075 -1.093115667 2.464352608
H -4.764799481 -1.383113378 -2.653534886

