13

O 4.989382206 -0.772916164 -1.251384917
N 3.075238703 0.966733222 -0.744572918
C 1.188041864 -0.170485195 0.272085696
C 1.252155471 -2.789878928 0.955921305
C -3.538993916 0.358577649 -0.005718840
C -1.060850124 1.386820057 1.056665760
H 6.228145472 0.203557254 -2.144510320
H 1.461420549 -3.973429593 -0.746038419
H -3.897657982 -1.565795263 0.655562263
H -3.507900400 0.332036861 -2.068392303
H -5.127820443 1.526483196 0.592208061
H -0.718751700 3.314400722 0.410572216
H -1.134082095 1.407632216 3.120233423

