19

C 3.631579970 2.362168597 -2.583600998
C 1.824221338 -1.629331918 -0.076661748
O 2.210183160 1.599625272 -0.439818203
C -0.527976005 1.623916889 -0.705463278
C -0.903714540 -0.873552130 0.664543867
C -1.383293054 -0.482848174 3.487725004
C -2.911541329 -2.578269286 -0.490978588
H 5.611902098 2.052401195 -2.128801669
H 3.106001801 1.204674081 -4.208073050
H 3.288223140 4.365924273 -2.938921987
H 2.967409136 -1.867403092 1.645796176
H -1.007535281 1.510279758 -2.709183125
H -1.302307726 3.340937182 0.137662807
H 0.000848222 0.814718115 4.301433476
H -1.225164627 -2.280885241 4.490408791
H -3.274821807 0.272992104 3.854055896
H -2.876695422 -4.431680582 0.417450932
H -2.552630125 -2.863813934 -2.499908051
H -4.811985130 -1.800577331 -0.243717959

