9

C -1.113306446 2.832045993 2.439166395
C -2.812419241 0.692909091 2.004384955
C -4.079739973 -1.281995211 2.498452112
H -4.768674270 -2.819398850 3.625933337
N -3.861908275 -0.629352404 -0.269040573
H -5.482891723 0.281019074 -0.794179136
H -0.609181562 2.984967639 4.429338436
H -1.997314091 4.595278783 1.831127135
H 0.601145615 2.580514376 1.316532922

