14

O 4.672385033 0.117660679 -0.774639519
C 3.259145962 1.561828350 0.662340125
C 0.799227690 0.282256373 1.095484439
C -0.210094062 -1.979009183 -0.460359980
C -2.834289949 -0.710657531 -0.431276528
C -1.574951666 1.813846156 0.309969093
H 6.257532905 0.968586514 -1.047161818
H 0.728889627 -0.086060660 3.133198286
H 0.619330998 -2.017391656 -2.347077018
H -0.046017496 -3.856196389 0.368757036
H -3.923622498 -0.739124819 -2.178581326
H -4.014224812 -1.439864613 1.094214297
H -1.181557647 2.993445045 -1.335309884
H -2.479337853 2.970336435 1.751567832

