14

O 4.594310941 -0.073677870 -1.310347093
C 3.429195575 0.918069146 0.612415054
C 0.842079214 0.012266571 1.185432814
C -0.372701008 -2.065066631 -0.461751215
C -2.810953910 -0.469999718 -0.546324547
C -1.281672880 1.856495499 0.316311278
H 5.585521729 1.523841302 -0.166632516
H 0.695049810 -0.351031027 3.211073937
H 0.557770524 -2.181530112 -2.297555422
H -0.488865912 -3.953212850 0.347596091
H -3.790818479 -0.329934276 -2.351725196
H -4.162256149 -1.060280410 0.893823827
H -0.663797822 3.009978656 -1.277142016
H -2.096365333 3.084357955 1.751502769

