13

C -3.667270925 1.539424683 0.184080773
C -1.089277482 0.624211669 0.887762077
C 0.761957888 0.123689246 -0.725516939
C 3.320470163 -0.804459000 0.041894397
O 3.900740031 -3.186799006 -1.040835714
H -5.121999519 0.239652422 0.862930301
H -4.056499705 3.376835176 1.043935772
H -3.869597741 1.727746096 -1.858483188
H 2.559931838 -4.330072276 -0.613534924
H -0.728831405 0.369144865 2.898309316
H 0.452277961 0.345779819 -2.746564043
H 4.790245683 0.476274818 -0.636959043
H 3.456836882 -0.869877860 2.110952318

