9

O 3.049960347 1.381384827 -1.545160077
C 1.524303604 -0.086195624 -0.196912713
C -0.740000688 0.657602279 0.898893093
C -2.675346880 -1.307036047 0.106894909
O -1.623887976 -1.319167314 2.511653833
H 2.163646159 -2.015392364 0.000934848
H -1.298945109 2.597004901 1.241540124
H 2.398925377 3.076901719 -1.643411549
H -2.005597271 -2.950212344 -1.011344251

