12

C -2.223217508 -2.485238428 -0.427417669
C -2.265315919 -3.449892290 1.881646582
H -2.414951293 -2.277293381 3.554728607
H -2.146087523 -5.470800840 2.183779264
C -2.369135772 0.261808345 -1.113871247
C -2.600585497 2.087290301 1.092619331
H -4.298687100 1.712279538 2.203958969
H -2.708306954 4.032088809 0.417222597
H -0.974999092 1.950039927 2.356639788
H -0.695657981 0.733557553 -2.239216666
H -3.968799462 0.518596199 -2.403858318
H -2.065707210 -3.772181830 -2.022705415

