15

O 0.940777607 -4.103540582 -1.370833144
C 1.650900496 -2.032756641 -0.277995834
C -1.889705111 -1.831524506 -0.147674727
C -2.099837402 0.892748743 0.685191940
C -0.128073618 2.431133151 -0.706313731
C 2.233953987 0.779672615 -0.669103625
C 2.863155118 -0.839509603 1.558626322
H -2.577422670 -2.176181204 -2.042407227
H -2.451468078 -3.263694022 1.198379894
H -4.025976509 1.498252048 0.219298011
H -1.826836436 1.006731448 2.723510424
H -0.712224492 2.753796932 -2.663387540
H 0.176302736 4.279771621 0.164437297
H 3.784304480 1.446760866 -1.856467493
H 4.085057171 -0.906731715 3.184043994

