11

N 0.703427476 0.250108333 0.338924932
C -1.591188798 0.736540958 -1.087345615
C -2.262445803 3.504500122 -1.433983275
O -2.641143933 4.566861611 0.995290517
H -2.889315825 6.351455733 0.834743165
H -0.721507204 4.479623482 -2.428376777
H -3.979334439 3.666393015 -2.588794834
H -1.426784911 -0.145782733 -2.948787661
H -3.162781192 -0.197037775 -0.123372716
H 0.596445545 1.128679198 2.034266306
H 2.225842281 0.971554820 -0.566595148

