14

O -0.004109058 4.657023109 2.962390647
C 1.528283481 4.125177020 1.288426100
C 1.513687236 1.957200610 -0.242364481
C -0.105305706 -1.882166937 -1.870706938
C -0.229717319 -4.290405772 -1.252965030
C -2.199847832 0.068349580 1.551161035
N -0.323455010 0.129652333 -0.049343697
H 3.104780017 5.433943603 0.867609074
H 2.954413716 1.612319526 -1.639748561
H 0.221594841 -1.213090165 -3.774581745
H -0.059411969 -5.720621235 -2.702221714
H -0.470748220 -4.903088505 0.684024260
H -2.329056117 1.560859582 2.932936317
H -3.558009115 -1.437639101 1.346672164

