14

O 3.029968727 4.555232199 1.519699684
C 2.017223074 2.531245039 1.306462137
C 0.538145585 1.876903596 -1.005775719
C 0.193688046 -0.927364236 -1.904938590
C 0.644566854 -3.126698497 -0.444200100
C -2.692140347 -0.046210966 1.359983792
N -1.857256227 0.680810516 -0.911900305
H 2.193149414 1.044030239 2.749871782
H 0.796284820 3.182678969 -2.562984256
H 0.490929191 -0.964285762 -3.943207392
H 2.184592186 -4.354166265 -1.007066761
H -0.877952906 -4.037401509 0.544104837
H -2.744625562 1.318610091 2.882286819
H -3.900978835 -1.690093548 1.454160372

