13

O 2.577329847 3.835847214 1.098323998
C 1.573081688 2.054721930 0.158236689
N 2.720779089 -0.392130775 0.004061740
C 0.556498379 -2.535609475 -0.663862999
C -1.594876069 -0.730095669 -1.168562170
C -2.737661336 0.877783397 0.822401213
N -0.832684233 1.928913130 -0.919056830
H 4.123478780 -0.761088576 1.244020352
H 0.332549071 -3.658973025 1.048186635
H 2.874048086 -1.390165742 -1.784076583
H -2.727133067 -1.092949655 -2.837894979
H -4.602630272 1.688387182 0.593762758
H -2.152117602 0.560558059 2.762589752

