14

C -2.958784161 2.284144262 -0.216610122
C -1.928498316 -0.203046707 0.714710899
C -1.410602242 -2.340568687 -1.126159437
C 0.674211970 -0.959440523 0.090892916
C 3.057587433 -0.600672201 0.352556792
C 5.477466660 -0.236087699 0.633692066
H -2.197378923 2.734810986 -2.080036285
H -2.447131043 3.818698006 1.062500517
H -5.017308087 2.221562693 -0.356260807
H -2.591671432 -0.789767060 2.566817641
H -1.751695105 -1.984138826 -3.115876470
H -1.777074127 -4.262087243 -0.519225629
H 6.533682458 -1.228766237 2.080769272
H 6.501962044 1.064182071 -0.572168611

