17

C -2.147123868 -0.904795993 0.958485871
C -1.805162411 1.363074666 -0.696129826
C 0.275241823 3.171965186 -0.011405196
C 0.670273970 1.288060646 -2.086425563
C 2.117093739 -1.109438139 -1.530725007
C 1.235859702 -2.296127412 0.939506917
O 2.261794830 -1.563471542 3.111677253
H -3.083324766 -0.477408219 2.772458582
H -0.223300716 -1.175798498 2.626696731
H -3.167524820 -2.470498206 0.102875141
H -3.463896181 2.114397062 -1.631692413
H 0.029093052 5.127035564 -0.555838449
H 1.275303426 2.880832561 1.751670822
H 0.769451124 1.993256471 -4.004454947
H 4.141926891 -0.774268566 -1.299616623
H 1.844843542 -2.450677983 -3.077574783
H 0.765148105 -4.315351196 0.770861163

