16

C 3.776468390 0.657716249 -0.244320272
O 2.391807081 -0.803486925 1.504642629
C 0.212150670 0.366422015 2.475713037
C -2.239740385 -0.244895221 1.152893355
N -3.703590781 1.559080556 -0.002984369
O -2.095322998 2.744918791 -1.404865184
C -2.565546101 -2.434900773 -0.240051475
H 5.587817935 -0.285752914 -0.500879317
H 2.825038246 0.799539060 -2.073813323
H 4.108103704 2.570166991 0.475511671
H 0.429053114 2.419520973 2.586424551
H -0.006364163 -0.355101082 4.403945752
H -1.312149873 0.861940482 -2.700063231
H -1.279360932 -4.015132844 -0.047325677
H -1.356166375 -1.066934986 -2.507652319
H -4.405552869 -2.780411740 -1.082107975

