12

C 1.051421393 0.312180375 2.215061488
H 2.409936112 -0.129614784 3.670309095
C 0.457198411 2.489197442 1.120584783
H 1.181002993 4.374464853 1.405124171
C -1.588162212 1.640131722 -0.748004528
H -2.317634612 2.945853502 -2.156056509
C -3.263194700 -0.058350793 0.947436567
H -3.909111858 0.676470136 2.757332988
H -4.763959007 -0.997631642 -0.105035494
C -0.727014849 -1.514963784 0.837764799
H -0.546965599 -3.543743573 1.105978504
O -0.482751004 -0.663915401 -1.766730711

