11

O -4.143761135 -1.826532833 -1.397605934
C -3.692772704 -0.120264948 0.034219765
C -1.361899011 1.215445406 0.256817465
C 0.363326927 2.872614445 -0.224836043
N 2.062099836 1.247901981 -1.299704779
C 2.815439194 -1.005454050 -0.302538198
N 1.382542643 -2.536956604 0.866647411
H -5.111144252 0.622307014 1.391244454
H 0.556491103 4.910884400 -0.240330455
H 4.810739385 -1.368414106 -0.692332176
H 2.364988749 -4.011307698 1.608643366

