14

C -1.484095996 -3.014713913 0.119841763
H -3.062712200 -3.721136624 -0.997878044
H -1.730572086 -3.590467694 2.084678756
C -0.872837058 -0.211245076 -0.048384888
C 1.943766698 -0.752993235 -0.228954720
H 2.841008568 -0.577257814 1.619552963
H 3.038191530 0.302522703 -1.617651823
C 1.230971623 -3.524085810 -0.850528274
H 2.296996327 -4.993766030 0.116223259
H 1.270791761 -3.895968794 -2.875635645
C -2.326045764 1.805280784 -1.222781398
H -4.241609415 1.437600986 -1.866812553
H -1.352262352 3.348522656 -2.165549964
O -1.973152506 1.687914921 1.444077833

