17

C -1.650140807 -1.539961497 1.311926715
C -1.212839814 0.216382258 -0.831958881
C 1.411127831 -0.267402218 -1.858631343
C 2.900020538 -1.267884682 0.325585109
O 2.213061609 0.701243104 3.823005240
C -3.108822311 1.655058290 -2.248706606
O -1.644979247 2.839444536 -0.325768356
H -1.531356894 -3.524428890 0.774129330
H 0.595912548 -0.257818037 3.359064739
H -3.386735734 -1.170443506 2.362058672
H 2.223997001 1.459952005 -2.629467542
H 1.395879896 -1.707209724 -3.349829685
H 4.756534518 -0.499166602 0.689300923
H 2.678302147 -3.225174469 0.849124812
H 1.838335306 2.437599208 3.402998453
H -5.093614680 1.388033148 -1.796557619
H -2.723895267 2.311007475 -4.159798012

