11

O 4.050252081 -0.388478804 -1.203566947
C 1.549790945 -0.815890275 -1.100938377
O 0.210869625 -2.871416302 -0.307898652
C -1.993988116 -1.823200301 0.558497879
C -2.153638699 0.684044140 0.272130162
C 0.197853853 1.604816898 -0.968475587
C 2.568441898 1.147133602 0.630800558
H -3.328996343 -3.163168662 1.317175051
H -3.768527119 1.818682967 0.775847262
H 0.168524850 3.085946648 -2.388157396
H 2.621319477 0.538100043 2.577272569

