14

O 4.365501749 0.346922536 0.088772700
C 2.421355727 -0.108038061 -1.703615238
C -0.150943594 0.080362248 -0.573451962
C -1.131994345 -1.960672226 1.212477818
N -1.981454772 -0.416841722 3.136100527
C -1.859488239 2.048238431 -0.904492068
O -3.589283478 2.571743231 0.577059695
H 3.927227868 1.839454931 1.024929246
H 2.547434776 1.206239567 -3.302801016
H 2.793081390 -2.009190661 -2.421667191
H 0.642664656 -2.846504760 1.838345529
H -2.418155078 -3.341266826 0.366880123
H -3.895909834 -0.495424056 3.337419023
H -1.770031666 3.031664416 -2.738004434

