15

C -2.054159377 2.528778588 -1.571026459
C -0.521979829 0.341864873 -0.670184926
C 2.278623049 0.269407010 -0.924358759
C 3.623434684 0.951211352 1.416808197
N 4.617323988 1.497969383 3.264988560
C -0.646771125 -3.497482378 1.835537888
N -1.600198521 -1.511636903 0.625050311
H -1.724532389 4.249942994 -0.464582932
H -1.640296449 2.984831182 -3.544769751
H -4.074794068 2.114786969 -1.455500698
H 2.890907939 1.571451780 -2.401226345
H 2.908899208 -1.634074885 -1.468721411
H 1.363596778 -3.676424211 2.086419742
H -1.954575969 -4.824036442 2.648208466
H -3.509276121 -1.400404089 0.680803902

