16

C -2.202173763 -0.626283810 2.061667939
C -0.743074535 0.108695308 -0.309631890
C -0.221990625 -2.171682919 -2.000214632
C -1.780674773 2.527336481 -1.674934052
O 1.207815864 3.622587293 -1.072382594
C 1.545918897 1.649326940 0.186696173
N 3.504560971 1.264465865 1.708847171
H -2.525143076 1.016971137 3.260165847
H -4.048894427 -1.361257808 1.510723258
H -1.236293526 -2.096182842 3.153423779
H 0.675894658 -3.726834186 -0.972868463
H -2.013404618 -2.874563376 -2.747861189
H 0.974027697 -1.663578480 -3.601329745
H 4.817192440 2.619766085 1.937413363
H -1.557070643 2.227720101 -3.723601375
H 3.629969697 -0.334722483 2.717967838

