14

C -1.830267574 1.172146300 -0.849364789
C -2.123268929 -0.823300401 1.233463302
N 0.460279685 -1.249572235 2.049198506
C 2.225577568 -0.690915165 0.237783785
N 4.520257752 -1.357558385 0.284358768
C 0.861565163 0.840266117 -1.738934011
N 1.966408943 1.590116680 -3.708148763
H 0.784127002 2.576861800 -4.861218108
H -2.031175602 3.071055473 -0.062585216
H -3.196774512 0.960480420 -2.374568715
H -2.987267984 -2.546221478 0.473533960
H -3.292660255 -0.160365882 2.795738118
H 0.880778651 -2.570179501 3.347515470
H 5.400680360 -0.637912013 -1.266196288

