14

C -2.000685703 1.398196473 -0.882117144
C -2.065464456 -0.848936936 0.879505089
N 0.494994672 -1.173799338 1.833257763
C 2.393940298 -0.634211684 0.202206780
N 4.685178101 -1.275888428 0.435918621
C 1.449169058 0.862815274 -2.016846300
N 2.076951723 1.638668620 -4.085291610
H -0.400394869 1.735246985 -3.174428992
H -1.952745543 3.198959810 0.111309121
H -3.553537041 1.375634806 -2.248438889
H -2.727269297 -2.538196264 -0.121577741
H -3.338288467 -0.524983719 2.470017081
H 0.857278773 -2.460334881 3.183080838
H 5.719133000 -0.578269006 -1.026016727

