12

C -3.400657044 -0.008222198 0.252002972
C -0.606214938 -0.085056497 0.100895577
C 1.255969052 1.790660804 0.270601071
C 3.856453883 0.540359702 0.205878613
C 3.107718768 -1.891339781 -0.213079055
O 0.504056551 -2.265360422 -0.215340585
H -4.050915016 1.938694617 0.378868904
H -4.065339353 -1.035617556 1.913814407
H -4.246243628 -0.887928921 -1.410712904
H 0.889784216 3.726861360 0.807469239
H 2.342250733 1.790135857 -1.685989365
H 4.138359277 -3.635370459 -0.430400167

