17

C 5.256547245 -0.630361556 1.624380533
O 3.501990093 1.019374831 0.518552017
C 1.239220787 -0.196076546 -0.150459465
C -3.234291074 1.363809694 -1.517232060
C -4.639543709 -0.945983916 -0.652461922
C -0.506695119 1.729284125 -1.275206105
O -2.220908073 2.986784101 0.362760028
H 4.516355827 -1.460578695 3.375824248
H 6.943112183 0.463770085 2.064035691
H 5.768863524 -2.171062578 0.330899662
H 0.368455776 -1.074447516 1.513550326
H 1.615283089 -1.692993786 -1.548409499
H -4.149607985 2.377952724 -3.057674134
H -6.535014072 -0.422530592 -0.029741209
H -4.832619238 -2.289917319 -2.206822773
H -3.690800302 -1.880671048 0.916232767
H 0.423437849 2.971811952 -2.625410111

