10

C -3.376150018 -0.824904986 0.544349216
N -1.244596964 0.106445098 1.099816674
C 1.197982390 -1.328284827 0.376714390
O 0.768390969 -3.319923012 -0.716970236
C 3.227582206 0.026008697 1.163053789
H 5.108404149 -0.685688787 0.823235376
H 3.019697045 1.813484104 2.127492051
H -1.101781441 1.778476511 2.017588377
H -5.113998684 0.137774130 1.032256225
H -3.313292889 -2.628736879 -0.438738262

