12

C -2.904769080 0.022885812 -0.130748658
N -1.221978322 -0.465488640 1.627067648
C 1.197710156 -1.449095113 0.644843585
O 1.155053690 -3.362985600 -0.607016938
C 2.891052748 0.584492082 0.762238229
H -0.800614050 2.048932244 -1.879329985
H -4.457015932 1.288103032 0.284478672
H -3.065005742 -1.299034040 -1.679780651
H -1.088345885 0.804267382 3.045181098
H 0.750159988 1.954943540 -1.335589922
H 4.621974907 0.468206255 -0.314378825
H 2.855508606 1.868444860 2.354307771

