14

C 2.494463958 -0.827450070 -0.521560688
C 0.034892867 -0.440639837 0.883306443
C -1.413572154 2.045709769 0.514488690
C -3.589142618 0.331554754 -0.321875142
O -1.979872259 -1.852611828 -0.271709395
C 4.133168766 -2.856229386 0.280728812
H 2.321227567 -0.358012507 -2.535639427
H 3.944992900 0.517776284 0.284269498
H 0.295206571 -0.997477460 2.859597255
H -0.656565821 3.228335584 -0.992879302
H -1.718364248 3.186312440 2.197468723
H -4.376043133 0.663575779 -2.200892264
H -5.132325758 0.162546720 1.043750560
H 5.561871315 -3.105759670 -1.224811758

