14

C 3.132048198 -0.045531515 -0.188004373
C 0.710927629 0.597131138 0.942475526
C -1.579993418 2.130441177 0.261299007
C -2.945067489 -0.381305082 -0.183332857
O -0.846878060 -1.656849675 -1.281457546
C 1.961376149 -2.741053054 -0.047633967
H 3.480757055 0.802519536 -2.034092867
H 4.732548225 0.119012136 1.099888597
H 0.575572405 -0.129746290 2.859447532
H -1.374874173 3.185035420 -1.491771572
H -2.250514356 3.338367306 1.793222517
H -4.501734184 -0.356368767 -1.534882140
H -3.581518707 -1.252594549 1.585713335
H 2.455471047 -3.748563013 -1.779795937

