11

C -3.107222904 -0.658965906 -1.384486510
C -2.356117089 1.735005195 -0.858558212
C -0.845180349 3.345147398 -0.057504782
C 1.517787054 2.519809947 0.928088984
O 3.328331934 3.441457649 1.798189473
C 1.685461414 -0.860787692 0.749457387
C 3.331101706 -2.335024250 1.381848415
H -4.454140638 -1.588759952 -0.148407695
H -0.479898765 -1.228416297 -0.250964492
H -3.035030056 -1.336539207 -3.319092515
H 4.805990276 -3.586747012 1.950808233

