9

N -3.344180104 0.040937798 -0.320813324
C -0.984799287 -0.054682759 0.073545136
N 0.247998567 -2.131493414 1.086435296
O 2.869400625 -1.754395769 0.856473239
N 3.249848925 0.651213550 0.104911831
C 1.122503573 1.707094375 -0.310490525
H -0.208754776 -3.883632321 0.482937104
H -3.859207895 1.756359251 -0.998075615
H 1.024514017 3.638424143 -0.956069346

