15

O -3.745072159 -1.068909750 2.519458194
C -3.445496995 0.464941942 0.361121522
C -1.471873531 -0.555634358 -1.421989542
C 0.109591945 1.249738039 -2.989070008
C 1.206261469 -0.093475057 -0.819555644
C 3.082482515 -0.498039607 0.663284157
C 4.979266219 -0.934505228 2.173039440
H -2.126760916 -1.215767434 3.328179358
H -2.948596591 2.410815080 0.886017047
H -5.287444286 0.513349431 -0.567111761
H -1.916045928 -2.370193092 -2.270245534
H 0.666398368 0.659370742 -4.868536847
H -0.245152847 3.258187304 -2.783956545
H 6.312600885 -2.440648432 1.788736553
H 5.282066522 0.205293327 3.847429534

