9

C 3.921782169 -1.068416739 0.987039387
C 2.196276249 0.319216713 0.020601152
C -0.184662374 1.234727831 -0.632474799
C -2.443294521 -0.068312862 -0.043803360
C -4.365835135 -1.171757489 0.443558179
H 5.131297029 -2.479268859 0.138824459
H 2.166198877 2.289343749 1.035331905
H -0.329189459 3.098786978 -1.460948760
H -6.065442037 -2.160402369 0.867217428

