9

C -2.459693923 0.840643363 1.788491474
H -0.509890023 0.395424681 2.214640494
H -3.796076227 0.212304815 3.202773277
C -3.273656734 0.794293540 -0.923511689
H -1.875623722 0.319257191 -2.337914926
H -5.161141228 0.133472377 -1.349925290
C -3.004748536 3.266428210 0.431960779
H -1.425736000 4.467770855 -0.062682820
H -4.709463784 4.281076836 0.927810079

