16

O 4.258303860 1.370712882 -0.696392801
C 3.901659553 -1.021467759 -0.288494226
C 1.455273345 -1.986330247 -1.132755451
C -0.776307032 0.685391892 0.759458045
C -3.221458492 0.115122418 -0.695945238
C -2.893023752 2.645694242 0.376531464
H 1.059932681 1.558192233 0.034148768
H 4.500801453 -1.831551284 1.548789391
H 4.780004860 -2.406777661 -1.760319891
H 0.734201421 -3.808610988 -0.503366669
H 0.903892288 -1.394096523 -3.013717725
H -0.676044702 -0.060075376 2.661318384
H -3.092024404 -0.106088129 -2.725183039
H -4.517748706 -1.177729194 0.215178843
H -2.451227251 4.195418216 -0.878659115
H -3.944316133 3.151882329 2.055132681

