9

O 4.748805879 -2.409533883 -0.091457642
C 2.885829810 -1.174081134 -0.057939116
C 2.612265365 1.591075036 -0.072903007
H 4.348331169 2.661356349 -0.119733576
C 0.348711578 2.763761061 -0.029858693
H 0.158173157 4.798580452 -0.041390841
N -1.988607235 1.454950958 0.033856749
C -1.209059719 -0.751905244 0.033455541
N 0.310715402 -2.440648432 0.012236544

