11

O 4.225765687 -2.675653809 0.025691091
C 2.296264871 -1.457512595 0.014445161
C 2.165304432 1.304904228 -0.070376424
C -0.071398445 2.557405425 -0.079756004
N -2.357464370 1.339271279 -0.010169656
C -1.945152945 -1.070962257 0.060773422
N -0.109994476 -2.641716614 0.085789239
H 3.937602805 2.321953298 -0.124907722
H -0.164644959 4.601560743 -0.143244094
H -3.966342138 -2.145675185 0.946877775
H -3.988480733 -2.198787109 -0.699234382

