9

C -1.819044604 -4.229300608 2.550570758
O 0.566394497 -3.937736390 1.376509371
C 1.214876428 -1.597785775 0.616457216
N 0.020844303 0.451107200 0.779079430
H -1.695832476 0.274596519 1.622415426
H 3.077459245 -1.657504220 -0.250641425
H -3.350428143 -3.687756842 1.272656354
H -1.937561518 -3.114227363 4.286651113
H -1.992445287 -6.223681844 3.010661697

