12

N -4.108130179 -0.807801453 -0.073322016
C -1.945050370 0.320250752 -0.374030922
C 0.096244073 -1.469712214 -0.429604857
C 2.199066581 0.177897079 0.355633247
O 4.619052351 -0.541549001 0.704464539
C 1.367802704 2.568666662 0.466552763
O -1.260412479 2.701230326 -0.085487714
H -5.793830000 0.046705809 -0.359363227
H -2.367720953 -2.640944888 0.267866959
H 0.348775450 -2.437934993 -2.230140179
H 4.656291690 -2.343506153 0.892068121
H 2.256504410 4.344752009 0.889576366

