8

C 2.040310028 0.277322883 -0.791748116
C 3.650919428 -0.589376930 -2.412108994
C -0.441326431 -0.865371544 0.014405288
C -2.554035439 0.878398239 -0.357042208
N -4.208729314 2.250056097 -0.623974924
H 2.698153285 2.057797761 0.029756591
H -0.361921047 -1.371914597 2.012971114
H -0.812181442 -2.591877828 -1.046766222

