13

C 3.665305969 -0.567228282 -0.300803751
C 0.854552011 -0.513401134 -0.164658262
C -0.672035743 1.786277169 0.519575511
C -3.293145933 0.753382424 0.348530504
C -3.077668381 -1.668795050 -0.315889794
N -0.530695038 -2.444520178 -0.629422286
H 4.301545065 -2.456835731 -0.804080658
H 4.354595592 0.774158149 -1.711536308
H 4.499743377 -0.029977633 1.509807251
H -0.319939477 3.342715056 -0.797566092
H -5.010821017 1.796338392 0.699348408
H -4.567102022 -3.032293090 -0.625744067
H -0.186024885 2.481704924 2.406647894

