29

C    -3.19277   0.89166  -2.98932
O    -2.68494   1.04058  -1.65308
C    -2.24260  -0.07064  -1.07217
O    -2.23972  -1.16986  -1.59208
C    -1.82733   0.15112   0.30051
C    -1.61201   0.19061   1.49116
Cl   -1.29453   0.26269   3.13661
C     1.14268   1.44189   1.14908
C     1.99357   0.32984   1.57849
O     1.91114  -0.23915   2.64926
O     2.99135   0.16057   0.69744
C     3.94909  -0.85057   0.98548
O     0.70804   1.65041  -0.05022
C     0.69610   0.99099  -1.20077
C     0.82440  -0.43364  -1.31091
O     1.01595  -1.24180  -0.40665
O     0.60605  -0.80824  -2.59720
C     0.60065  -2.21121  -2.86468
H    -3.52376   1.88243  -3.29280
H    -2.39962   0.51531  -3.63704
H    -4.04392   0.18321  -2.99262
H     0.78907   2.16665   1.87798
H     3.45794  -1.81216   1.05941
H     4.63360  -0.80543   0.13917
H     4.46783  -0.60060   1.92072
H     0.27389   1.57728  -2.00755
H     0.37543  -2.29996  -3.94037
H     1.59403  -2.63806  -2.65842
H    -0.15828  -2.73246  -2.27641
29

C    -3.19349   0.89072  -2.98763
O    -2.68651   1.04062  -1.65123
C    -2.24028  -0.06992  -1.07007
O    -2.24006  -1.16976  -1.58936
C    -1.81251   0.15567   0.29627
C    -1.57797   0.20333   1.48320
Cl   -1.29762   0.26192   3.13009
C     1.12524   1.43105   1.15240
C     1.98880   0.32691   1.58005
O     1.91047  -0.24221   2.65092
O     2.98654   0.16348   0.69914
C     3.94731  -0.84704   0.98536
O     0.71109   1.65261  -0.05144
C     0.68403   0.98892  -1.19572
C     0.82091  -0.43674  -1.30930
O     1.01769  -1.24480  -0.40717
O     0.60385  -0.80810  -2.59534
C     0.60102  -2.21104  -2.86570
H    -3.52410   1.88207  -3.29250
H    -2.39972   0.51515  -3.63651
H    -4.04404   0.18283  -2.99236
H     0.78920   2.16536   1.87825
H     3.45783  -1.81134   1.05909
H     4.63289  -0.80376   0.13900
H     4.46735  -0.59964   1.92066
H     0.27339   1.57650  -2.00739
H     0.37534  -2.29944  -3.94065
H     1.59441  -2.63746  -2.65904
H    -0.15781  -2.73286  -2.27667
29

C    -3.19421   0.88978  -2.98595
O    -2.68808   1.04066  -1.64938
C    -2.23797  -0.06920  -1.06796
O    -2.24040  -1.16967  -1.58664
C    -1.79769   0.16021   0.29202
C    -1.54392   0.21604   1.47525
Cl   -1.30071   0.26114   3.12356
C     1.10780   1.42021   1.15571
C     1.98402   0.32397   1.58160
O     1.90980  -0.24527   2.65258
O     2.98172   0.16638   0.70084
C     3.94553  -0.84350   0.98524
O     0.71414   1.65481  -0.05266
C     0.67196   0.98685  -1.19067
C     0.81742  -0.43984  -1.30770
O     1.01944  -1.24781  -0.40769
O     0.60165  -0.80797  -2.59348
C     0.60139  -2.21088  -2.86672
H    -3.52444   1.88171  -3.29220
H    -2.39982   0.51499  -3.63598
H    -4.04417   0.18245  -2.99210
H     0.78933   2.16406   1.87852
H     3.45771  -1.81052   1.05878
H     4.63218  -0.80210   0.13883
H     4.46686  -0.59868   1.92061
H     0.27289   1.57571  -2.00723
H     0.37526  -2.29892  -3.94092
H     1.59479  -2.63687  -2.65966
H    -0.15734  -2.73325  -2.27693
29

C    -3.19493   0.88884  -2.98426
O    -2.68966   1.04070  -1.64752
C    -2.23565  -0.06847  -1.06586
O    -2.24074  -1.16957  -1.58392
C    -1.78287   0.16476   0.28778
C    -1.50988   0.22875   1.46729
Cl   -1.30380   0.26036   3.11704
C     1.09037   1.40937   1.15903
C     1.97925   0.32104   1.58316
O     1.90913  -0.24833   2.65424
O     2.97690   0.16929   0.70254
C     3.94375  -0.83997   0.98512
O     0.71719   1.65701  -0.05387
C     0.65989   0.98478  -1.18562
C     0.81393  -0.44294  -1.30609
O     1.02119  -1.25081  -0.40822
O     0.59945  -0.80783  -2.59163
C     0.60176  -2.21071  -2.86775
H    -3.52478   1.88135  -3.29191
H    -2.39991   0.51484  -3.63544
H    -4.04429   0.18207  -2.99184
H     0.78947   2.16276   1.87879
H     3.45759  -1.80971   1.05846
H     4.63146  -0.80044   0.13866
H     4.46637  -0.59772   1.92056
H     0.27238   1.57493  -2.00708
H     0.37518  -2.29840  -3.94119
H     1.59516  -2.63627  -2.66027
H    -0.15687  -2.73365  -2.27719
29

C    -3.19565   0.88789  -2.98258
O    -2.69123   1.04074  -1.64567
C    -2.23333  -0.06775  -1.06376
O    -2.24109  -1.16948  -1.58120
C    -1.76804   0.16930   0.28354
C    -1.47583   0.24146   1.45934
Cl   -1.30689   0.25958   3.11051
C     1.07293   1.39853   1.16235
C     1.97448   0.31810   1.58471
O     1.90846  -0.25139   2.65590
O     2.97208   0.17219   0.70423
C     3.94197  -0.83643   0.98500
O     0.72024   1.65921  -0.05509
C     0.64782   0.98271  -1.18057
C     0.81044  -0.44604  -1.30449
O     1.02294  -1.25382  -0.40874
O     0.59724  -0.80769  -2.58977
C     0.60213  -2.21055  -2.86877
H    -3.52512   1.88099  -3.29161
H    -2.40001   0.51468  -3.63491
H    -4.04442   0.18169  -2.99158
H     0.78960   2.16146   1.87906
H     3.45748  -1.80889   1.05815
H     4.63075  -0.79877   0.13849
H     4.46589  -0.59677   1.92051
H     0.27188   1.57415  -2.00692
H     0.37510  -2.29788  -3.94146
H     1.59554  -2.63568  -2.66089
H    -0.15639  -2.73405  -2.27745
29

C    -3.19638   0.88695  -2.98090
O    -2.69280   1.04078  -1.64382
C    -2.23102  -0.06703  -1.06166
O    -2.24143  -1.16938  -1.57848
C    -1.75322   0.17385   0.27930
C    -1.44179   0.25417   1.45138
Cl   -1.30998   0.25880   3.10399
C     1.05549   1.38769   1.16566
C     1.96971   0.31517   1.58626
O     1.90779  -0.25445   2.65756
O     2.96727   0.17510   0.70593
C     3.94020  -0.83290   0.98489
O     0.72329   1.66141  -0.05631
C     0.63574   0.98064  -1.17552
C     0.80695  -0.44915  -1.30288
O     1.02468  -1.25683  -0.40926
O     0.59504  -0.80755  -2.58791
C     0.60250  -2.21038  -2.86979
H    -3.52546   1.88063  -3.29131
H    -2.40010   0.51452  -3.63438
H    -4.04455   0.18132  -2.99132
H     0.78973   2.16017   1.87933
H     3.45736  -1.80808   1.05783
H     4.63004  -0.79711   0.13832
H     4.46540  -0.59581   1.92046
H     0.27138   1.57337  -2.00676
H     0.37502  -2.29736  -3.94174
H     1.59592  -2.63509  -2.66151
H    -0.15592  -2.73445  -2.27771
29

C    -3.19710   0.88601  -2.97921
O    -2.69437   1.04082  -1.64197
C    -2.22870  -0.06631  -1.05956
O    -2.24177  -1.16929  -1.57576
C    -1.73840   0.17839   0.27505
C    -1.40774   0.26688   1.44343
Cl   -1.31307   0.25802   3.09746
C     1.03805   1.37684   1.16898
C     1.96493   0.31223   1.58782
O     1.90712  -0.25751   2.65922
O     2.96245   0.17800   0.70763
C     3.93842  -0.82936   0.98477
O     0.72634   1.66361  -0.05752
C     0.62367   0.97857  -1.17048
C     0.80346  -0.45225  -1.30128
O     1.02643  -1.25983  -0.40978
O     0.59284  -0.80741  -2.58605
C     0.60287  -2.21022  -2.87082
H    -3.52580   1.88027  -3.29102
H    -2.40020   0.51436  -3.63385
H    -4.04467   0.18094  -2.99107
H     0.78986   2.15887   1.87960
H     3.45725  -1.80726   1.05752
H     4.62933  -0.79544   0.13814
H     4.46491  -0.59485   1.92041
H     0.27088   1.57259  -2.00661
H     0.37493  -2.29684  -3.94201
H     1.59630  -2.63449  -2.66212
H    -0.15545  -2.73485  -2.27797
29

C    -3.19782   0.88507  -2.97753
O    -2.69594   1.04086  -1.64012
C    -2.22639  -0.06559  -1.05746
O    -2.24211  -1.16919  -1.57304
C    -1.72358   0.18294   0.27081
C    -1.37370   0.27960   1.43547
Cl   -1.31616   0.25724   3.09094
C     1.02061   1.36600   1.17230
C     1.96016   0.30930   1.58937
O     1.90645  -0.26057   2.66088
O     2.95763   0.18091   0.70933
C     3.93664  -0.82583   0.98465
O     0.72939   1.66581  -0.05874
C     0.61160   0.97650  -1.16543
C     0.79997  -0.45535  -1.29967
O     1.02818  -1.26284  -0.41030
O     0.59064  -0.80727  -2.58419
C     0.60324  -2.21005  -2.87184
H    -3.52614   1.87991  -3.29072
H    -2.40030   0.51420  -3.63332
H    -4.04480   0.18056  -2.99081
H     0.78999   2.15757   1.87987
H     3.45713  -1.80644   1.05720
H     4.62862  -0.79378   0.13797
H     4.46443  -0.59389   1.92036
H     0.27037   1.57181  -2.00645
H     0.37485  -2.29633  -3.94228
H     1.59668  -2.63390  -2.66274
H    -0.15498  -2.73525  -2.27823
29

C    -3.19854   0.88413  -2.97584
O    -2.69751   1.04090  -1.63827
C    -2.22407  -0.06487  -1.05536
O    -2.24245  -1.16909  -1.57032
C    -1.70875   0.18748   0.26657
C    -1.33965   0.29231   1.42752
Cl   -1.31925   0.25647   3.08441
C     1.00318   1.35516   1.17562
C     1.95539   0.30637   1.59093
O     1.90578  -0.26363   2.66254
O     2.95281   0.18382   0.71103
C     3.93486  -0.82229   0.98453
O     0.73244   1.66801  -0.05996
C     0.59953   0.97443  -1.16038
C     0.79648  -0.45845  -1.29807
O     1.02993  -1.26584  -0.41082
O     0.58844  -0.80713  -2.58234
C     0.60361  -2.20989  -2.87286
H    -3.52648   1.87955  -3.29043
H    -2.40039   0.51404  -3.63278
H    -4.04492   0.18018  -2.99055
H     0.79013   2.15627   1.88014
H     3.45702  -1.80563   1.05689
H     4.62791  -0.79212   0.13780
H     4.46394  -0.59293   1.92031
H     0.26987   1.57103  -2.00629
H     0.37477  -2.29581  -3.94255
H     1.59706  -2.63330  -2.66336
H    -0.15451  -2.73565  -2.27849
29

C    -3.19926   0.88318  -2.97416
O    -2.69909   1.04094  -1.63641
C    -2.22175  -0.06415  -1.05326
O    -2.24279  -1.16900  -1.56760
C    -1.69393   0.19203   0.26233
C    -1.30561   0.30502   1.41956
Cl   -1.32234   0.25569   3.07788
C     0.98574   1.34432   1.17893
C     1.95062   0.30343   1.59248
O     1.90511  -0.26670   2.66420
O     2.94799   0.18672   0.71272
C     3.93308  -0.81876   0.98441
O     0.73549   1.67021  -0.06118
C     0.58746   0.97236  -1.15533
C     0.79299  -0.46155  -1.29646
O     1.03167  -1.26885  -0.41134
O     0.58624  -0.80700  -2.58048
C     0.60398  -2.20972  -2.87388
H    -3.52682   1.87919  -3.29013
H    -2.40049   0.51388  -3.63225
H    -4.04505   0.17981  -2.99029
H     0.79026   2.15498   1.88041
H     3.45690  -1.80481   1.05657
H     4.62719  -0.79045   0.13763
H     4.46345  -0.59197   1.92025
H     0.26937   1.57025  -2.00614
H     0.37469  -2.29529  -3.94283
H     1.59743  -2.63271  -2.66397
H    -0.15404  -2.73604  -2.27875
29

C    -3.19998   0.88224  -2.97247
O    -2.70066   1.04098  -1.63456
C    -2.21944  -0.06343  -1.05116
O    -2.24313  -1.16890  -1.56488
C    -1.67911   0.19657   0.25808
C    -1.27156   0.31773   1.41161
Cl   -1.32543   0.25491   3.07136
C     0.96830   1.33348   1.18225
C     1.94584   0.30050   1.59404
O     1.90443  -0.26976   2.66586
O     2.94318   0.18963   0.71442
C     3.93131  -0.81522   0.98429
O     0.73854   1.67241  -0.06239
C     0.57539   0.97029  -1.15028
C     0.78950  -0.46465  -1.29486
O     1.03342  -1.27186  -0.41186
O     0.58403  -0.80686  -2.57862
C     0.60435  -2.20956  -2.87491
H    -3.52716   1.87883  -3.28983
H    -2.40059   0.51373  -3.63172
H    -4.04518   0.17943  -2.99003
H     0.79039   2.15368   1.88068
H     3.45679  -1.80400   1.05626
H     4.62648  -0.78879   0.13746
H     4.46297  -0.59101   1.92020
H     0.26887   1.56947  -2.00598
H     0.37460  -2.29477  -3.94310
H     1.59781  -2.63212  -2.66459
H    -0.15357  -2.73644  -2.27901
29

C    -3.20070   0.88130  -2.97079
O    -2.70223   1.04102  -1.63271
C    -2.21712  -0.06271  -1.04906
O    -2.24347  -1.16881  -1.56216
C    -1.66428   0.20112   0.25384
C    -1.23752   0.33044   1.40365
Cl   -1.32852   0.25413   3.06483
C     0.95086   1.32264   1.18557
C     1.94107   0.29756   1.59559
O     1.90376  -0.27282   2.66752
O     2.93836   0.19253   0.71612
C     3.92953  -0.81169   0.98418
O     0.74159   1.67461  -0.06361
C     0.56331   0.96822  -1.14524
C     0.78601  -0.46775  -1.29325
O     1.03517  -1.27486  -0.41238
O     0.58183  -0.80672  -2.57676
C     0.60472  -2.20939  -2.87593
H    -3.52750   1.87847  -3.28954
H    -2.40068   0.51357  -3.63119
H    -4.04530   0.17905  -2.98977
H     0.79052   2.15238   1.88095
H     3.45667  -1.80318   1.05594
H     4.62577  -0.78712   0.13729
H     4.46248  -0.59005   1.92015
H     0.26837   1.56869  -2.00582
H     0.37452  -2.29425  -3.94337
H     1.59819  -2.63152  -2.66521
H    -0.15310  -2.73684  -2.27928
29

C    -3.20142   0.88036  -2.96911
O    -2.70380   1.04106  -1.63086
C    -2.21480  -0.06199  -1.04696
O    -2.24381  -1.16871  -1.55944
C    -1.64946   0.20566   0.24960
C    -1.20348   0.34315   1.39569
Cl   -1.33161   0.25335   3.05831
C     0.93343   1.31180   1.18888
C     1.93630   0.29463   1.59715
O     1.90309  -0.27588   2.66918
O     2.93354   0.19544   0.71782
C     3.92775  -0.80815   0.98406
O     0.74465   1.67681  -0.06483
C     0.55124   0.96615  -1.14019
C     0.78252  -0.47086  -1.29165
O     1.03692  -1.27787  -0.41290
O     0.57963  -0.80658  -2.57490
C     0.60509  -2.20923  -2.87695
H    -3.52783   1.87811  -3.28924
H    -2.40078   0.51341  -3.63065
H    -4.04543   0.17867  -2.98951
H     0.79065   2.15108   1.88122
H     3.45656  -1.80236   1.05563
H     4.62506  -0.78546   0.13712
H     4.46199  -0.58909   1.92010
H     0.26786   1.56791  -2.00567
H     0.37444  -2.29373  -3.94364
H     1.59857  -2.63093  -2.66582
H    -0.15262  -2.73724  -2.27954
29

C    -3.20214   0.87942  -2.96742
O    -2.70537   1.04110  -1.62901
C    -2.21249  -0.06127  -1.04486
O    -2.24415  -1.16862  -1.55672
C    -1.63464   0.21020   0.24536
C    -1.16943   0.35587   1.38774
Cl   -1.33470   0.25257   3.05178
C     0.91599   1.30096   1.19220
C     1.93153   0.29169   1.59870
O     1.90242  -0.27894   2.67084
O     2.92872   0.19835   0.71952
C     3.92597  -0.80462   0.98394
O     0.74770   1.67901  -0.06604
C     0.53917   0.96408  -1.13514
C     0.77903  -0.47396  -1.29004
O     1.03866  -1.28087  -0.41342
O     0.57743  -0.80644  -2.57305
C     0.60546  -2.20906  -2.87798
H    -3.52817   1.87775  -3.28894
H    -2.40088   0.51325  -3.63012
H    -4.04555   0.17829  -2.98925
H     0.79079   2.14979   1.88149
H     3.45644  -1.80155   1.05531
H     4.62435  -0.78380   0.13695
H     4.46151  -0.58813   1.92005
H     0.26736   1.56713  -2.00551
H     0.37436  -2.29321  -3.94391
H     1.59895  -2.63033  -2.66644
H    -0.15215  -2.73764  -2.27980
29

C    -3.20286   0.87847  -2.96574
O    -2.70694   1.04115  -1.62715
C    -2.21017  -0.06054  -1.04276
O    -2.24449  -1.16852  -1.55400
C    -1.61982   0.21475   0.24111
C    -1.13539   0.36858   1.37978
Cl   -1.33779   0.25179   3.04526
C     0.89855   1.29012   1.19552
C     1.92675   0.28876   1.60026
O     1.90175  -0.28200   2.67250
O     2.92391   0.20125   0.72121
C     3.92419  -0.80109   0.98382
O     0.75075   1.68121  -0.06726
C     0.52710   0.96201  -1.13009
C     0.77555  -0.47706  -1.28844
O     1.04041  -1.28388  -0.41394
O     0.57523  -0.80630  -2.57119
C     0.60583  -2.20890  -2.87900
H    -3.52851   1.87739  -3.28865
H    -2.40097   0.51309  -3.62959
H    -4.04568   0.17792  -2.98899
H     0.79092   2.14849   1.88176
H     3.45632  -1.80073   1.05500
H     4.62364  -0.78213   0.13677
H     4.46102  -0.58717   1.92000
H     0.26686   1.56635  -2.00535
H     0.37428  -2.29269  -3.94419
H     1.59933  -2.62974  -2.66706
H    -0.15168  -2.73804  -2.28006
29

C    -3.20359   0.87753  -2.96405
O    -2.70852   1.04119  -1.62530
C    -2.20786  -0.05982  -1.04066
O    -2.24483  -1.16843  -1.55128
C    -1.60499   0.21929   0.23687
C    -1.10134   0.38129   1.37183
Cl   -1.34088   0.25102   3.03873
C     0.88111   1.27928   1.19884
C     1.92198   0.28583   1.60181
O     1.90108  -0.28506   2.67416
O     2.91909   0.20416   0.72291
C     3.92242  -0.79755   0.98370
O     0.75380   1.68341  -0.06848
C     0.51503   0.95994  -1.12504
C     0.77206  -0.48016  -1.28683
O     1.04216  -1.28689  -0.41446
O     0.57303  -0.80616  -2.56933
C     0.60620  -2.20873  -2.88002
H    -3.52885   1.87703  -3.28835
H    -2.40107   0.51293  -3.62906
H    -4.04581   0.17754  -2.98873
H     0.79105   2.14719   1.88203
H     3.45621  -1.79991   1.05468
H     4.62292  -0.78047   0.13660
H     4.46053  -0.58621   1.91995
H     0.26636   1.56557  -2.00520
H     0.37419  -2.29218  -3.94446
H     1.59970  -2.62914  -2.66767
H    -0.15121  -2.73843  -2.28032
29

C    -3.20431   0.87659  -2.96237
O    -2.71009   1.04123  -1.62345
C    -2.20554  -0.05910  -1.03856
O    -2.24517  -1.16833  -1.54856
C    -1.59017   0.22384   0.23263
C    -1.06730   0.39400   1.36387
Cl   -1.34397   0.25024   3.03220
C     0.86368   1.26844   1.20215
C     1.91721   0.28289   1.60336
O     1.90041  -0.28812   2.67582
O     2.91427   0.20706   0.72461
C     3.92064  -0.79402   0.98358
O     0.75685   1.68561  -0.06970
C     0.50296   0.95787  -1.11999
C     0.76857  -0.48326  -1.28523
O     1.04391  -1.28989  -0.41498
O     0.57082  -0.80602  -2.56747
C     0.60657  -2.20857  -2.88104
H    -3.52919   1.87667  -3.28806
H    -2.40116   0.51277  -3.62853
H    -4.04593   0.17716  -2.98847
H     0.79118   2.14589   1.88230
H     3.45609  -1.79910   1.05437
H     4.62221  -0.77880   0.13643
H     4.46005  -0.58525   1.91990
H     0.26585   1.56479  -2.00504
H     0.37411  -2.29166  -3.94473
H     1.60008  -2.62855  -2.66829
H    -0.15074  -2.73883  -2.28058
29

C    -3.20503   0.87565  -2.96068
O    -2.71166   1.04127  -1.62160
C    -2.20322  -0.05838  -1.03646
O    -2.24551  -1.16824  -1.54584
C    -1.57535   0.22838   0.22839
C    -1.03325   0.40671   1.35592
Cl   -1.34706   0.24946   3.02568
C     0.84624   1.25759   1.20547
C     1.91244   0.27996   1.60492
O     1.89974  -0.29118   2.67748
O     2.90945   0.20997   0.72631
C     3.91886  -0.79048   0.98347
O     0.75990   1.68781  -0.07091
C     0.49089   0.95580  -1.11495
C     0.76508  -0.48636  -1.28362
O     1.04565  -1.29290  -0.41550
O     0.56862  -0.80589  -2.56561
C     0.60694  -2.20840  -2.88207
H    -3.52953   1.87631  -3.28776
H    -2.40126   0.51262  -3.62799
H    -4.04606   0.17678  -2.98821
H     0.79131   2.14460   1.88257
H     3.45598  -1.79828   1.05405
H     4.62150  -0.77714   0.13626
H     4.45956  -0.58429   1.91984
H     0.26535   1.56401  -2.00488
H     0.37403  -2.29114  -3.94500
H     1.60046  -2.62796  -2.66891
H    -0.15027  -2.73923  -2.28084
29

C    -3.20575   0.87471  -2.95900
O    -2.71323   1.04131  -1.61975
C    -2.20091  -0.05766  -1.03436
O    -2.24586  -1.16814  -1.54312
C    -1.56053   0.23293   0.22414
C    -0.99921   0.41942   1.34796
Cl   -1.35015   0.24868   3.01915
C     0.82880   1.24675   1.20879
C     1.90766   0.27702   1.60647
O     1.89907  -0.29424   2.67914
O     2.90463   0.21288   0.72801
C     3.91708  -0.78695   0.98335
O     0.76295   1.69001  -0.07213
C     0.47881   0.95373  -1.10990
C     0.76159  -0.48946  -1.28202
O     1.04740  -1.29590  -0.41602
O     0.56642  -0.80575  -2.56376
C     0.60731  -2.20824  -2.88309
H    -3.52987   1.87595  -3.28746
H    -2.40136   0.51246  -3.62746
H    -4.04618   0.17641  -2.98795
H     0.79145   2.14330   1.88284
H     3.45586  -1.79747   1.05374
H     4.62079  -0.77548   0.13609
H     4.45908  -0.58333   1.91979
H     0.26485   1.56323  -2.00473
H     0.37395  -2.29062  -3.94528
H     1.60084  -2.62736  -2.66952
H    -0.14980  -2.73963  -2.28110
29

C    -3.20647   0.87377  -2.95732
O    -2.71480   1.04135  -1.61790
C    -2.19859  -0.05694  -1.03226
O    -2.24620  -1.16805  -1.54040
C    -1.54570   0.23747   0.21990
C    -0.96516   0.43213   1.34001
Cl   -1.35324   0.24790   3.01263
C     0.81136   1.23591   1.21210
C     1.90289   0.27409   1.60803
O     1.89840  -0.29730   2.68080
O     2.89982   0.21578   0.72971
C     3.91530  -0.78341   0.98323
O     0.76600   1.69221  -0.07335
C     0.46674   0.95166  -1.10485
C     0.75810  -0.49256  -1.28041
O     1.04915  -1.29891  -0.41654
O     0.56422  -0.80561  -2.56190
C     0.60768  -2.20807  -2.88411
H    -3.53021   1.87559  -3.28717
H    -2.40145   0.51230  -3.62693
H    -4.04631   0.17603  -2.98770
H     0.79158   2.14200   1.88311
H     3.45575  -1.79665   1.05342
H     4.62008  -0.77381   0.13592
H     4.45859  -0.58237   1.91974
H     0.26435   1.56245  -2.00457
H     0.37387  -2.29010  -3.94555
H     1.60122  -2.62677  -2.67014
H    -0.14932  -2.74003  -2.28136
29

C    -3.20719   0.87282  -2.95563
O    -2.71637   1.04139  -1.61604
C    -2.19627  -0.05622  -1.03016
O    -2.24654  -1.16795  -1.53768
C    -1.53088   0.24202   0.21566
C    -0.93112   0.44485   1.33205
Cl   -1.35633   0.24712   3.00610
C     0.79392   1.22507   1.21542
C     1.89812   0.27115   1.60958
O     1.89773  -0.30037   2.68246
O     2.89500   0.21869   0.73140
C     3.91353  -0.77988   0.98311
O     0.76905   1.69441  -0.07456
C     0.45467   0.94959  -1.09980
C     0.75461  -0.49567  -1.27881
O     1.05090  -1.30192  -0.41706
O     0.56202  -0.80547  -2.56004
C     0.60804  -2.20791  -2.88514
H    -3.53055   1.87523  -3.28687
H    -2.40155   0.51214  -3.62640
H    -4.04643   0.17565  -2.98744
H     0.79171   2.14070   1.88338
H     3.45563  -1.79583   1.05311
H     4.61937  -0.77215   0.13575
H     4.45810  -0.58141   1.91969
H     0.26384   1.56167  -2.00441
H     0.37378  -2.28958  -3.94582
H     1.60160  -2.62617  -2.67076
H    -0.14885  -2.74043  -2.28162
29

C    -3.20647   0.87377  -2.95732
O    -2.71480   1.04135  -1.61790
C    -2.19859  -0.05694  -1.03226
O    -2.24620  -1.16805  -1.54040
C    -1.54570   0.23747   0.21990
C    -0.96516   0.43213   1.34001
Cl   -1.35324   0.24790   3.01263
C     0.81136   1.23591   1.21210
C     1.90289   0.27409   1.60803
O     1.89840  -0.29730   2.68080
O     2.89982   0.21578   0.72971
C     3.91530  -0.78341   0.98323
O     0.76600   1.69221  -0.07335
C     0.46674   0.95166  -1.10485
C     0.75810  -0.49256  -1.28041
O     1.04915  -1.29891  -0.41654
O     0.56422  -0.80561  -2.56190
C     0.60768  -2.20807  -2.88411
H    -3.53021   1.87559  -3.28717
H    -2.40145   0.51230  -3.62693
H    -4.04631   0.17603  -2.98770
H     0.79158   2.14200   1.88311
H     3.45575  -1.79665   1.05342
H     4.62008  -0.77381   0.13592
H     4.45859  -0.58237   1.91974
H     0.26435   1.56245  -2.00457
H     0.37387  -2.29010  -3.94555
H     1.60122  -2.62677  -2.67014
H    -0.14932  -2.74003  -2.28136
29

C    -3.20575   0.87471  -2.95900
O    -2.71323   1.04131  -1.61975
C    -2.20091  -0.05766  -1.03436
O    -2.24586  -1.16814  -1.54312
C    -1.56053   0.23293   0.22414
C    -0.99921   0.41942   1.34796
Cl   -1.35015   0.24868   3.01915
C     0.82880   1.24675   1.20879
C     1.90766   0.27702   1.60647
O     1.89907  -0.29424   2.67914
O     2.90463   0.21288   0.72801
C     3.91708  -0.78695   0.98335
O     0.76295   1.69001  -0.07213
C     0.47881   0.95373  -1.10990
C     0.76159  -0.48946  -1.28202
O     1.04740  -1.29590  -0.41602
O     0.56642  -0.80575  -2.56376
C     0.60731  -2.20824  -2.88309
H    -3.52987   1.87595  -3.28746
H    -2.40136   0.51246  -3.62746
H    -4.04618   0.17641  -2.98795
H     0.79145   2.14330   1.88284
H     3.45586  -1.79747   1.05374
H     4.62079  -0.77548   0.13609
H     4.45908  -0.58333   1.91979
H     0.26485   1.56323  -2.00473
H     0.37395  -2.29062  -3.94528
H     1.60084  -2.62736  -2.66952
H    -0.14980  -2.73963  -2.28110
29

C    -3.20503   0.87565  -2.96068
O    -2.71166   1.04127  -1.62160
C    -2.20322  -0.05838  -1.03646
O    -2.24551  -1.16824  -1.54584
C    -1.57535   0.22838   0.22839
C    -1.03325   0.40671   1.35592
Cl   -1.34706   0.24946   3.02568
C     0.84624   1.25759   1.20547
C     1.91244   0.27996   1.60492
O     1.89974  -0.29118   2.67748
O     2.90945   0.20997   0.72631
C     3.91886  -0.79048   0.98347
O     0.75990   1.68781  -0.07091
C     0.49089   0.95580  -1.11495
C     0.76508  -0.48636  -1.28362
O     1.04565  -1.29290  -0.41550
O     0.56862  -0.80589  -2.56561
C     0.60694  -2.20840  -2.88207
H    -3.52953   1.87631  -3.28776
H    -2.40126   0.51262  -3.62799
H    -4.04606   0.17678  -2.98821
H     0.79131   2.14460   1.88257
H     3.45598  -1.79828   1.05405
H     4.62150  -0.77714   0.13626
H     4.45956  -0.58429   1.91984
H     0.26535   1.56401  -2.00488
H     0.37403  -2.29114  -3.94500
H     1.60046  -2.62796  -2.66891
H    -0.15027  -2.73923  -2.28084
29

C    -3.20431   0.87659  -2.96237
O    -2.71009   1.04123  -1.62345
C    -2.20554  -0.05910  -1.03856
O    -2.24517  -1.16833  -1.54856
C    -1.59017   0.22384   0.23263
C    -1.06730   0.39400   1.36387
Cl   -1.34397   0.25024   3.03220
C     0.86368   1.26844   1.20215
C     1.91721   0.28289   1.60336
O     1.90041  -0.28812   2.67582
O     2.91427   0.20706   0.72461
C     3.92064  -0.79402   0.98358
O     0.75685   1.68561  -0.06970
C     0.50296   0.95787  -1.11999
C     0.76857  -0.48326  -1.28523
O     1.04391  -1.28989  -0.41498
O     0.57082  -0.80602  -2.56747
C     0.60657  -2.20857  -2.88104
H    -3.52919   1.87667  -3.28806
H    -2.40116   0.51277  -3.62853
H    -4.04593   0.17716  -2.98847
H     0.79118   2.14589   1.88230
H     3.45609  -1.79910   1.05437
H     4.62221  -0.77880   0.13643
H     4.46005  -0.58525   1.91990
H     0.26585   1.56479  -2.00504
H     0.37411  -2.29166  -3.94473
H     1.60008  -2.62855  -2.66829
H    -0.15074  -2.73883  -2.28058
29

C    -3.20359   0.87753  -2.96405
O    -2.70852   1.04119  -1.62530
C    -2.20786  -0.05982  -1.04066
O    -2.24483  -1.16843  -1.55128
C    -1.60499   0.21929   0.23687
C    -1.10134   0.38129   1.37183
Cl   -1.34088   0.25102   3.03873
C     0.88111   1.27928   1.19884
C     1.92198   0.28583   1.60181
O     1.90108  -0.28506   2.67416
O     2.91909   0.20416   0.72291
C     3.92242  -0.79755   0.98370
O     0.75380   1.68341  -0.06848
C     0.51503   0.95994  -1.12504
C     0.77206  -0.48016  -1.28683
O     1.04216  -1.28689  -0.41446
O     0.57303  -0.80616  -2.56933
C     0.60620  -2.20873  -2.88002
H    -3.52885   1.87703  -3.28835
H    -2.40107   0.51293  -3.62906
H    -4.04581   0.17754  -2.98873
H     0.79105   2.14719   1.88203
H     3.45621  -1.79991   1.05468
H     4.62292  -0.78047   0.13660
H     4.46053  -0.58621   1.91995
H     0.26636   1.56557  -2.00520
H     0.37419  -2.29218  -3.94446
H     1.59970  -2.62914  -2.66767
H    -0.15121  -2.73843  -2.28032
29

C    -3.20286   0.87847  -2.96574
O    -2.70694   1.04115  -1.62715
C    -2.21017  -0.06054  -1.04276
O    -2.24449  -1.16852  -1.55400
C    -1.61982   0.21475   0.24111
C    -1.13539   0.36858   1.37978
Cl   -1.33779   0.25179   3.04526
C     0.89855   1.29012   1.19552
C     1.92675   0.28876   1.60026
O     1.90175  -0.28200   2.67250
O     2.92391   0.20125   0.72121
C     3.92419  -0.80109   0.98382
O     0.75075   1.68121  -0.06726
C     0.52710   0.96201  -1.13009
C     0.77555  -0.47706  -1.28844
O     1.04041  -1.28388  -0.41394
O     0.57523  -0.80630  -2.57119
C     0.60583  -2.20890  -2.87900
H    -3.52851   1.87739  -3.28865
H    -2.40097   0.51309  -3.62959
H    -4.04568   0.17792  -2.98899
H     0.79092   2.14849   1.88176
H     3.45632  -1.80073   1.05500
H     4.62364  -0.78213   0.13677
H     4.46102  -0.58717   1.92000
H     0.26686   1.56635  -2.00535
H     0.37428  -2.29269  -3.94419
H     1.59933  -2.62974  -2.66706
H    -0.15168  -2.73804  -2.28006
29

C    -3.20214   0.87942  -2.96742
O    -2.70537   1.04110  -1.62901
C    -2.21249  -0.06127  -1.04486
O    -2.24415  -1.16862  -1.55672
C    -1.63464   0.21020   0.24536
C    -1.16943   0.35587   1.38774
Cl   -1.33470   0.25257   3.05178
C     0.91599   1.30096   1.19220
C     1.93153   0.29169   1.59870
O     1.90242  -0.27894   2.67084
O     2.92872   0.19835   0.71952
C     3.92597  -0.80462   0.98394
O     0.74770   1.67901  -0.06604
C     0.53917   0.96408  -1.13514
C     0.77903  -0.47396  -1.29004
O     1.03866  -1.28087  -0.41342
O     0.57743  -0.80644  -2.57305
C     0.60546  -2.20906  -2.87798
H    -3.52817   1.87775  -3.28894
H    -2.40088   0.51325  -3.63012
H    -4.04555   0.17829  -2.98925
H     0.79079   2.14979   1.88149
H     3.45644  -1.80155   1.05531
H     4.62435  -0.78380   0.13695
H     4.46151  -0.58813   1.92005
H     0.26736   1.56713  -2.00551
H     0.37436  -2.29321  -3.94391
H     1.59895  -2.63033  -2.66644
H    -0.15215  -2.73764  -2.27980
29

C    -3.20142   0.88036  -2.96911
O    -2.70380   1.04106  -1.63086
C    -2.21480  -0.06199  -1.04696
O    -2.24381  -1.16871  -1.55944
C    -1.64946   0.20566   0.24960
C    -1.20348   0.34315   1.39569
Cl   -1.33161   0.25335   3.05831
C     0.93343   1.31180   1.18888
C     1.93630   0.29463   1.59715
O     1.90309  -0.27588   2.66918
O     2.93354   0.19544   0.71782
C     3.92775  -0.80815   0.98406
O     0.74465   1.67681  -0.06483
C     0.55124   0.96615  -1.14019
C     0.78252  -0.47086  -1.29165
O     1.03692  -1.27787  -0.41290
O     0.57963  -0.80658  -2.57490
C     0.60509  -2.20923  -2.87695
H    -3.52783   1.87811  -3.28924
H    -2.40078   0.51341  -3.63065
H    -4.04543   0.17867  -2.98951
H     0.79065   2.15108   1.88122
H     3.45656  -1.80236   1.05563
H     4.62506  -0.78546   0.13712
H     4.46199  -0.58909   1.92010
H     0.26786   1.56791  -2.00567
H     0.37444  -2.29373  -3.94364
H     1.59857  -2.63093  -2.66582
H    -0.15262  -2.73724  -2.27954
29

C    -3.20070   0.88130  -2.97079
O    -2.70223   1.04102  -1.63271
C    -2.21712  -0.06271  -1.04906
O    -2.24347  -1.16881  -1.56216
C    -1.66428   0.20112   0.25384
C    -1.23752   0.33044   1.40365
Cl   -1.32852   0.25413   3.06483
C     0.95086   1.32264   1.18557
C     1.94107   0.29756   1.59559
O     1.90376  -0.27282   2.66752
O     2.93836   0.19253   0.71612
C     3.92953  -0.81169   0.98418
O     0.74159   1.67461  -0.06361
C     0.56331   0.96822  -1.14524
C     0.78601  -0.46775  -1.29325
O     1.03517  -1.27486  -0.41238
O     0.58183  -0.80672  -2.57676
C     0.60472  -2.20939  -2.87593
H    -3.52750   1.87847  -3.28954
H    -2.40068   0.51357  -3.63119
H    -4.04530   0.17905  -2.98977
H     0.79052   2.15238   1.88095
H     3.45667  -1.80318   1.05594
H     4.62577  -0.78712   0.13729
H     4.46248  -0.59005   1.92015
H     0.26837   1.56869  -2.00582
H     0.37452  -2.29425  -3.94337
H     1.59819  -2.63152  -2.66521
H    -0.15310  -2.73684  -2.27928
29

C    -3.19998   0.88224  -2.97247
O    -2.70066   1.04098  -1.63456
C    -2.21944  -0.06343  -1.05116
O    -2.24313  -1.16890  -1.56488
C    -1.67911   0.19657   0.25808
C    -1.27156   0.31773   1.41161
Cl   -1.32543   0.25491   3.07136
C     0.96830   1.33348   1.18225
C     1.94584   0.30050   1.59404
O     1.90443  -0.26976   2.66586
O     2.94318   0.18963   0.71442
C     3.93131  -0.81522   0.98429
O     0.73854   1.67241  -0.06239
C     0.57539   0.97029  -1.15028
C     0.78950  -0.46465  -1.29486
O     1.03342  -1.27186  -0.41186
O     0.58403  -0.80686  -2.57862
C     0.60435  -2.20956  -2.87491
H    -3.52716   1.87883  -3.28983
H    -2.40059   0.51373  -3.63172
H    -4.04518   0.17943  -2.99003
H     0.79039   2.15368   1.88068
H     3.45679  -1.80400   1.05626
H     4.62648  -0.78879   0.13746
H     4.46297  -0.59101   1.92020
H     0.26887   1.56947  -2.00598
H     0.37460  -2.29477  -3.94310
H     1.59781  -2.63212  -2.66459
H    -0.15357  -2.73644  -2.27901
29

C    -3.19926   0.88318  -2.97416
O    -2.69909   1.04094  -1.63641
C    -2.22175  -0.06415  -1.05326
O    -2.24279  -1.16900  -1.56760
C    -1.69393   0.19203   0.26233
C    -1.30561   0.30502   1.41956
Cl   -1.32234   0.25569   3.07788
C     0.98574   1.34432   1.17893
C     1.95062   0.30343   1.59248
O     1.90511  -0.26670   2.66420
O     2.94799   0.18672   0.71272
C     3.93308  -0.81876   0.98441
O     0.73549   1.67021  -0.06118
C     0.58746   0.97236  -1.15533
C     0.79299  -0.46155  -1.29646
O     1.03167  -1.26885  -0.41134
O     0.58624  -0.80700  -2.58048
C     0.60398  -2.20972  -2.87388
H    -3.52682   1.87919  -3.29013
H    -2.40049   0.51388  -3.63225
H    -4.04505   0.17981  -2.99029
H     0.79026   2.15498   1.88041
H     3.45690  -1.80481   1.05657
H     4.62719  -0.79045   0.13763
H     4.46345  -0.59197   1.92025
H     0.26937   1.57025  -2.00614
H     0.37469  -2.29529  -3.94283
H     1.59743  -2.63271  -2.66397
H    -0.15404  -2.73604  -2.27875
29

C    -3.19854   0.88413  -2.97584
O    -2.69751   1.04090  -1.63827
C    -2.22407  -0.06487  -1.05536
O    -2.24245  -1.16909  -1.57032
C    -1.70875   0.18748   0.26657
C    -1.33965   0.29231   1.42752
Cl   -1.31925   0.25647   3.08441
C     1.00318   1.35516   1.17562
C     1.95539   0.30637   1.59093
O     1.90578  -0.26363   2.66254
O     2.95281   0.18382   0.71103
C     3.93486  -0.82229   0.98453
O     0.73244   1.66801  -0.05996
C     0.59953   0.97443  -1.16038
C     0.79648  -0.45845  -1.29807
O     1.02993  -1.26584  -0.41082
O     0.58844  -0.80713  -2.58234
C     0.60361  -2.20989  -2.87286
H    -3.52648   1.87955  -3.29043
H    -2.40039   0.51404  -3.63278
H    -4.04492   0.18018  -2.99055
H     0.79013   2.15627   1.88014
H     3.45702  -1.80563   1.05689
H     4.62791  -0.79212   0.13780
H     4.46394  -0.59293   1.92031
H     0.26987   1.57103  -2.00629
H     0.37477  -2.29581  -3.94255
H     1.59706  -2.63330  -2.66336
H    -0.15451  -2.73565  -2.27849
29

C    -3.19782   0.88507  -2.97753
O    -2.69594   1.04086  -1.64012
C    -2.22639  -0.06559  -1.05746
O    -2.24211  -1.16919  -1.57304
C    -1.72358   0.18294   0.27081
C    -1.37370   0.27960   1.43547
Cl   -1.31616   0.25724   3.09094
C     1.02061   1.36600   1.17230
C     1.96016   0.30930   1.58937
O     1.90645  -0.26057   2.66088
O     2.95763   0.18091   0.70933
C     3.93664  -0.82583   0.98465
O     0.72939   1.66581  -0.05874
C     0.61160   0.97650  -1.16543
C     0.79997  -0.45535  -1.29967
O     1.02818  -1.26284  -0.41030
O     0.59064  -0.80727  -2.58419
C     0.60324  -2.21005  -2.87184
H    -3.52614   1.87991  -3.29072
H    -2.40030   0.51420  -3.63332
H    -4.04480   0.18056  -2.99081
H     0.78999   2.15757   1.87987
H     3.45713  -1.80644   1.05720
H     4.62862  -0.79378   0.13797
H     4.46443  -0.59389   1.92036
H     0.27037   1.57181  -2.00645
H     0.37485  -2.29633  -3.94228
H     1.59668  -2.63390  -2.66274
H    -0.15498  -2.73525  -2.27823
29

C    -3.19710   0.88601  -2.97921
O    -2.69437   1.04082  -1.64197
C    -2.22870  -0.06631  -1.05956
O    -2.24177  -1.16929  -1.57576
C    -1.73840   0.17839   0.27505
C    -1.40774   0.26688   1.44343
Cl   -1.31307   0.25802   3.09746
C     1.03805   1.37684   1.16898
C     1.96493   0.31223   1.58782
O     1.90712  -0.25751   2.65922
O     2.96245   0.17800   0.70763
C     3.93842  -0.82936   0.98477
O     0.72634   1.66361  -0.05752
C     0.62367   0.97857  -1.17048
C     0.80346  -0.45225  -1.30128
O     1.02643  -1.25983  -0.40978
O     0.59284  -0.80741  -2.58605
C     0.60287  -2.21022  -2.87082
H    -3.52580   1.88027  -3.29102
H    -2.40020   0.51436  -3.63385
H    -4.04467   0.18094  -2.99107
H     0.78986   2.15887   1.87960
H     3.45725  -1.80726   1.05752
H     4.62933  -0.79544   0.13814
H     4.46491  -0.59485   1.92041
H     0.27088   1.57259  -2.00661
H     0.37493  -2.29684  -3.94201
H     1.59630  -2.63449  -2.66212
H    -0.15545  -2.73485  -2.27797
29

C    -3.19638   0.88695  -2.98090
O    -2.69280   1.04078  -1.64382
C    -2.23102  -0.06703  -1.06166
O    -2.24143  -1.16938  -1.57848
C    -1.75322   0.17385   0.27930
C    -1.44179   0.25417   1.45138
Cl   -1.30998   0.25880   3.10399
C     1.05549   1.38769   1.16566
C     1.96971   0.31517   1.58626
O     1.90779  -0.25445   2.65756
O     2.96727   0.17510   0.70593
C     3.94020  -0.83290   0.98489
O     0.72329   1.66141  -0.05631
C     0.63574   0.98064  -1.17552
C     0.80695  -0.44915  -1.30288
O     1.02468  -1.25683  -0.40926
O     0.59504  -0.80755  -2.58791
C     0.60250  -2.21038  -2.86979
H    -3.52546   1.88063  -3.29131
H    -2.40010   0.51452  -3.63438
H    -4.04455   0.18132  -2.99132
H     0.78973   2.16017   1.87933
H     3.45736  -1.80808   1.05783
H     4.63004  -0.79711   0.13832
H     4.46540  -0.59581   1.92046
H     0.27138   1.57337  -2.00676
H     0.37502  -2.29736  -3.94174
H     1.59592  -2.63509  -2.66151
H    -0.15592  -2.73445  -2.27771
29

C    -3.19565   0.88789  -2.98258
O    -2.69123   1.04074  -1.64567
C    -2.23333  -0.06775  -1.06376
O    -2.24109  -1.16948  -1.58120
C    -1.76804   0.16930   0.28354
C    -1.47583   0.24146   1.45934
Cl   -1.30689   0.25958   3.11051
C     1.07293   1.39853   1.16235
C     1.97448   0.31810   1.58471
O     1.90846  -0.25139   2.65590
O     2.97208   0.17219   0.70423
C     3.94197  -0.83643   0.98500
O     0.72024   1.65921  -0.05509
C     0.64782   0.98271  -1.18057
C     0.81044  -0.44604  -1.30449
O     1.02294  -1.25382  -0.40874
O     0.59724  -0.80769  -2.58977
C     0.60213  -2.21055  -2.86877
H    -3.52512   1.88099  -3.29161
H    -2.40001   0.51468  -3.63491
H    -4.04442   0.18169  -2.99158
H     0.78960   2.16146   1.87906
H     3.45748  -1.80889   1.05815
H     4.63075  -0.79877   0.13849
H     4.46589  -0.59677   1.92051
H     0.27188   1.57415  -2.00692
H     0.37510  -2.29788  -3.94146
H     1.59554  -2.63568  -2.66089
H    -0.15639  -2.73405  -2.27745
29

C    -3.19493   0.88884  -2.98426
O    -2.68966   1.04070  -1.64752
C    -2.23565  -0.06847  -1.06586
O    -2.24074  -1.16957  -1.58392
C    -1.78287   0.16476   0.28778
C    -1.50988   0.22875   1.46729
Cl   -1.30380   0.26036   3.11704
C     1.09037   1.40937   1.15903
C     1.97925   0.32104   1.58316
O     1.90913  -0.24833   2.65424
O     2.97690   0.16929   0.70254
C     3.94375  -0.83997   0.98512
O     0.71719   1.65701  -0.05387
C     0.65989   0.98478  -1.18562
C     0.81393  -0.44294  -1.30609
O     1.02119  -1.25081  -0.40822
O     0.59945  -0.80783  -2.59163
C     0.60176  -2.21071  -2.86775
H    -3.52478   1.88135  -3.29191
H    -2.39991   0.51484  -3.63544
H    -4.04429   0.18207  -2.99184
H     0.78947   2.16276   1.87879
H     3.45759  -1.80971   1.05846
H     4.63146  -0.80044   0.13866
H     4.46637  -0.59772   1.92056
H     0.27238   1.57493  -2.00708
H     0.37518  -2.29840  -3.94119
H     1.59516  -2.63627  -2.66027
H    -0.15687  -2.73365  -2.27719
29

C    -3.19421   0.88978  -2.98595
O    -2.68808   1.04066  -1.64938
C    -2.23797  -0.06920  -1.06796
O    -2.24040  -1.16967  -1.58664
C    -1.79769   0.16021   0.29202
C    -1.54392   0.21604   1.47525
Cl   -1.30071   0.26114   3.12356
C     1.10780   1.42021   1.15571
C     1.98402   0.32397   1.58160
O     1.90980  -0.24527   2.65258
O     2.98172   0.16638   0.70084
C     3.94553  -0.84350   0.98524
O     0.71414   1.65481  -0.05266
C     0.67196   0.98685  -1.19067
C     0.81742  -0.43984  -1.30770
O     1.01944  -1.24781  -0.40769
O     0.60165  -0.80797  -2.59348
C     0.60139  -2.21088  -2.86672
H    -3.52444   1.88171  -3.29220
H    -2.39982   0.51499  -3.63598
H    -4.04417   0.18245  -2.99210
H     0.78933   2.16406   1.87852
H     3.45771  -1.81052   1.05878
H     4.63218  -0.80210   0.13883
H     4.46686  -0.59868   1.92061
H     0.27289   1.57571  -2.00723
H     0.37526  -2.29892  -3.94092
H     1.59479  -2.63687  -2.65966
H    -0.15734  -2.73325  -2.27693
29

C    -3.19349   0.89072  -2.98763
O    -2.68651   1.04062  -1.65123
C    -2.24028  -0.06992  -1.07007
O    -2.24006  -1.16976  -1.58936
C    -1.81251   0.15567   0.29627
C    -1.57797   0.20333   1.48320
Cl   -1.29762   0.26192   3.13009
C     1.12524   1.43105   1.15240
C     1.98880   0.32691   1.58005
O     1.91047  -0.24221   2.65092
O     2.98654   0.16348   0.69914
C     3.94731  -0.84704   0.98536
O     0.71109   1.65261  -0.05144
C     0.68403   0.98892  -1.19572
C     0.82091  -0.43674  -1.30930
O     1.01769  -1.24480  -0.40717
O     0.60385  -0.80810  -2.59534
C     0.60102  -2.21104  -2.86570
H    -3.52410   1.88207  -3.29250
H    -2.39972   0.51515  -3.63651
H    -4.04404   0.18283  -2.99236
H     0.78920   2.16536   1.87825
H     3.45783  -1.81134   1.05909
H     4.63289  -0.80376   0.13900
H     4.46735  -0.59964   1.92066
H     0.27339   1.57650  -2.00739
H     0.37534  -2.29944  -3.94065
H     1.59441  -2.63746  -2.65904
H    -0.15781  -2.73286  -2.27667
