11

C 3.429130946 0.058068071 0.242498689
C 0.633711228 0.025285877 0.155237108
N -0.892317678 1.894818370 0.354474883
C -3.265799631 0.730458100 0.166497193
C -3.100489167 -1.944237958 -0.062154169
O -0.501971106 -2.242576089 -0.195735243
H 4.092848814 -1.175660681 1.754063952
H 4.088127276 1.975507729 0.565714441
H 4.199110722 -0.654046533 -1.531828815
H -4.991849678 1.767406836 0.518839671
H -3.709531249 -0.300711438 -1.947047471

