13

O -1.548554498 -3.340958083 -4.142148707
C -0.670303601 -1.961434522 -2.596106374
C -0.289764443 1.948387041 3.095701508
C 0.040368273 0.584945900 1.031268578
C 2.043932709 1.027453297 -0.952163358
O 1.304999603 -0.422503474 -3.103261754
C -1.478408676 -1.627705846 0.132921975
H -1.773441903 1.518008001 4.438070596
H 0.920888201 3.544298831 3.523501431
H 2.187284082 3.004142293 -1.516204238
H 3.903609996 0.372200061 -0.334160705
H -1.023096231 -3.367920506 1.149234732
H -3.516231749 -1.361123618 0.238947232

