16

C 3.877989807 1.775624726 1.949844454
C 1.568751248 0.082795780 2.262306455
C 0.840893562 -1.177025781 -0.177683729
H 2.294282416 -2.377077818 -1.013320904
O -1.628316493 -2.219101571 -0.330209515
C -1.039800314 -0.113612432 -1.894792386
C -1.008009054 -0.573684436 -4.690974420
H -0.031162151 -2.335640509 -5.125369336
H -2.930408109 -0.700344993 -5.428691355
H -0.048860740 0.973019415 -5.664403697
H -1.959288909 1.628381915 -1.291986098
H 1.942320094 -1.375885875 3.678983561
H -0.047021054 1.171742882 2.947698763
H 5.507716772 0.703579354 1.273188048
H 3.513634226 3.284039664 0.588640636
H 4.408356845 2.650616317 3.739119333

