14

C 3.100682297 0.883819863 -0.780737457
N 1.772790004 0.039093123 1.459492650
C -0.498970769 -1.179362730 1.437014112
O -1.055929693 -2.223626331 -0.907984962
N -2.002118587 -1.642438019 3.221134518
C -2.456095488 -0.826895133 -2.506033296
N -2.964058670 1.459584000 -2.134634687
H 2.137441667 2.445032483 -1.730431132
H 3.316016816 -0.675346581 -2.106037632
H 4.984983094 1.494262496 -0.220947610
H 2.124416182 1.001278379 3.056897248
H -1.403970664 -0.874033198 4.872306473
H -3.011049979 -1.988502638 -4.114568400
H -4.042743519 2.152681326 -3.556349255

