17

C -3.433356922 -0.518614491 0.416754266
C -1.537693769 1.187178013 -0.942337160
C -0.578666567 3.327205582 0.826822888
C 0.900707438 0.161029478 -1.828842210
C 1.879596815 -1.986995241 -0.379291579
C 4.724800933 -2.202834846 -0.515720754
O 6.028059323 -2.651241741 1.280393176
H -5.150769466 0.540606255 0.847293158
H -2.696937152 -1.250130724 2.198989102
H -3.973505825 -2.124908682 -0.761370486
H -2.473550869 2.130397014 -2.525771750
H 0.696248331 4.615654831 -0.148765231
H -2.217698506 4.388969446 1.484246721
H 0.390145259 2.557245138 2.477970712
H 1.133626293 -3.517425905 -1.606531957
H 1.203242915 -2.348808517 1.545609397
H 5.527334529 -1.866220067 -2.418384624

