16

N 5.325994396 0.581626162 -0.033449664
C 3.083549776 0.574323617 -0.852273512
C 1.589761733 -1.827750326 -0.983888269
C -0.767477381 -1.885912941 0.699797029
C -2.908870730 -0.130017806 -0.100596811
C -2.758076293 2.548700666 0.838181541
O -1.146678707 3.370045976 2.206980981
H 6.060795937 2.358940359 -0.062378385
H 1.021437316 -2.147336859 -2.951573136
H 2.857858537 -3.362578401 -0.448403097
H -0.230500043 -1.457353783 2.646605052
H -1.487358457 -3.819696726 0.691810461
H -3.120474949 -0.054886528 -2.162044994
H -4.733153976 -0.839026872 0.583716293
H -4.323958709 3.788291727 0.192902355
H 2.138636239 2.298260781 -1.502564951

