19

C 4.983227784 -1.378850893 -0.459721781
C 4.728452697 0.109874100 1.639138085
O 1.213894376 2.110843451 1.433155103
C -0.278255029 1.440914885 -0.284542147
C -2.449431085 -0.303464372 0.286303127
C -4.296625522 -0.968545356 -1.749338673
C -5.061464354 0.810646398 0.312424962
H 4.672751659 -3.400659803 -0.316644928
H 2.612546745 -0.820439998 -1.691042795
H 6.184499186 -0.768483396 -2.004406063
H 5.568919483 1.965526157 1.725554127
H 4.049404709 -0.659311858 3.402128196
H -0.666740900 2.787403651 -1.839906538
H 1.068452133 -0.176840646 -2.032136906
H -2.027344882 -1.719156345 1.703839643
H -3.974650678 -0.180472057 -3.613117063
H -5.090989756 -2.852311832 -1.757493975
H -5.243300699 2.794457697 -0.158428818
H -6.371580239 0.157602346 1.739683344

