10

C -3.034976085 -0.314027166 -0.246914563
C -0.443655802 -1.444231638 0.011583171
C 1.641377788 -0.146774234 0.120355712
C 3.719373377 1.162196099 0.226498775
H -3.951109585 -0.982813960 -1.971889659
H -2.944553881 1.741585618 -0.311183336
H -4.234566897 -0.865490899 1.340224816
H 4.478082618 1.803294700 2.018265825
H 4.752925349 1.648991381 -1.474086929
H -0.304547166 -3.491657070 0.110171430

