10

C 3.889312290 -0.000844745 0.000486623
C 1.132455494 0.002192630 -0.001055828
C -1.132432421 0.002045874 -0.001026310
C -3.889321342 -0.000820595 0.000484658
H 4.624150681 -0.834209563 -1.736726735
H 4.620259432 -1.092516832 1.589895129
H 4.627170085 1.918914211 0.150189536
H -4.627052714 1.918877701 0.151548495
H -4.620391618 -1.093595185 1.589081337
H -4.624219826 -0.832909375 -1.737322661

