14

C -3.132147579 0.099957649 -0.004718816
C -0.383644790 -0.670852718 -0.327604697
C 0.241179566 -3.217484134 0.763696908
O 2.291051306 -4.191533449 0.714570303
C 1.187603164 0.225057386 -2.548223246
C 1.688022654 1.240258360 -0.394659834
N 3.020566376 2.744630173 1.171338235
H -4.389904633 -1.177917165 -1.030827252
H -3.431279319 2.000207545 -0.741745264
H -3.713169841 0.080891276 1.979398278
H -1.377761769 -4.218278327 1.660578105
H 1.551531572 -0.106857890 -4.514369007
H 2.286274361 3.142064276 2.871820136
H 4.158109239 4.059581584 0.413418691

