17

O 3.592490135 0.349885154 2.337947373
C 3.545185339 -0.829850305 -0.066350987
C 0.852421062 -1.617926759 -0.635539198
C -0.979575782 0.582117642 -0.714431333
C -3.787540995 0.004388946 -1.159416954
O -4.517856628 1.418996216 1.028964265
C -1.924117628 1.711803912 1.785660003
H 5.269870626 0.938620787 2.676524103
H 4.782266295 -2.493311697 -0.092224795
H 4.210455144 0.480986737 -1.532475952
H 0.234996533 -2.989397119 0.785330115
H 0.842348406 -2.596060189 -2.459194790
H -0.286601703 2.039909368 -2.001452138
H -4.277443857 -2.001725071 -0.972099024
H -4.637799624 0.749719341 -2.888285641
H -1.443990301 3.682149287 2.164643613
H -1.475107023 0.569693788 3.448574130

