17

O 4.249579977 1.626926750 0.535362831
C 3.603484770 -0.807438683 -0.353867998
C 0.832556884 -1.251703732 -0.047336449
C -1.008936494 0.685957147 -0.198846110
C -3.553008900 0.646437437 -1.773652778
O -5.106335825 1.032840660 0.385002861
C -3.005556867 0.225788654 1.796294966
H 5.996777950 1.934149391 0.176473794
H 4.659303593 -2.281706194 0.651407738
H 4.097532916 -0.977327933 -2.373524869
H 0.604530889 -0.540521652 3.457025175
H 0.218465814 -3.193589548 -0.284542299
H -0.246827182 2.594360210 -0.133692662
H -3.893324500 -1.200318885 -2.622737490
H -3.719409924 2.170032659 -3.147201761
H -0.573466192 0.312171947 4.065428907
H -3.248067442 -1.690911403 2.555672319

