10

C -0.627762899 -3.498618916 -1.249311112
C -1.321978981 1.784466244 1.149014994
N 1.204077003 1.752791524 0.108555771
C 2.348828832 -0.214201231 -0.453063445
O 1.422335891 -2.705053941 -0.139693450
H -2.043425563 -0.058889252 1.754150162
H -1.270419202 -1.928696794 -2.519483951
H -2.605415599 2.569440543 -0.260513316
H -1.327209611 3.064291614 2.762604605
H 4.275605909 -0.240994751 -1.154830305

