10

C -1.127958438 -2.565528394 -0.356461647
C -1.187522586 1.550378140 0.825610761
N 1.350429601 1.819950557 0.038039204
C 2.544431170 -0.161901001 -0.482505831
O 1.464013744 -2.476959293 -0.242032002
H -1.883408392 -0.665920079 1.193092327
H -1.665274925 -1.722922418 -2.197999207
H -2.541408043 2.380251462 -0.478652150
H -1.468166493 2.299503975 2.730246901
H 4.523936936 -0.204394989 -1.004239013

