14

C -1.480979724 2.190854379 -0.439705613
C 0.362840814 0.078344398 0.027791975
C 2.139816297 0.473603256 2.213130603
O 1.558736663 -0.941519702 -2.212333914
C -0.138121197 -2.485173290 -0.886208080
O -2.296898080 -3.239079621 -2.114230823
H -0.465366790 3.921116589 -0.921352904
H -2.782336408 1.776843429 -1.980801475
H -2.597765270 2.549650613 1.256954601
H 3.417124212 -1.129027682 2.418352933
H 1.086021862 0.705500260 3.971857096
H 3.277841003 2.170108172 1.915976518
H -2.768970998 -1.950489871 -3.302345970
H 0.683027146 -4.097787783 0.087030316

