12

N 0.602851698 3.646529480 -0.084932947
C 0.901964163 1.285072044 0.226265091
C 2.998851929 -0.373676674 -0.229435201
O 2.346944623 -2.674943801 0.333028835
N 0.059667384 -3.024882926 1.209089841
C -1.109090921 -0.505613742 1.259141846
N -3.474649138 -0.366050457 -0.069819031
H -1.443547028 -0.036061492 3.250507438
H 2.208483823 4.461213335 -0.763343700
H 4.843718356 -0.116958419 -1.050617919
H -3.247660150 -0.832882787 -1.909973293
H -4.748278097 -1.567737391 0.694942209

