14

O 2.473553647 1.905423872 3.047090704
C 2.821948242 2.392333521 0.857739035
C 0.899649947 1.957144315 -1.207154535
C -0.503007394 -0.524609458 -1.390386915
C -0.258741943 -2.591640440 0.622488938
C -2.645209905 -1.260107477 0.817289844
N -1.662399007 2.269382893 -0.806030364
H 4.643870502 3.220514328 0.222518105
H 1.658219802 2.408126000 -3.090561226
H -0.927806980 -1.187573061 -3.277209211
H 1.104236346 -2.284343269 2.113642475
H -0.243783533 -4.449283437 -0.233338242
H -2.996914337 -0.054169547 2.411159029
H -4.293374248 -1.987865385 -0.146624719

