13

C -3.061445574 -2.623705918 0.108417103
C -1.639126954 -0.518138016 1.191078276
C 2.316181583 2.102000477 0.516363223
C 1.003132654 -0.470686350 0.339443586
C 1.442436398 3.795979038 -1.481570377
N 0.742158963 5.071032604 -3.088595514
H -1.997277241 -4.217532547 -0.693438630
H -4.643447827 -3.254755240 1.265236515
H -3.930308878 -1.602661155 -1.499333293
H 1.891679629 2.968436806 2.338204716
H 4.363905573 1.913969043 0.343455607
H 1.812583120 -1.726537540 1.803305302
H 1.390807757 -1.405884370 -1.477278582

