9

O 0.505470577 1.742545542 2.237212139
C 1.894065616 1.033032600 0.596603035
O 1.170869942 -0.560609875 -1.245792083
H -0.588261217 -0.954224501 -0.963578929
C 4.666266742 1.716265083 0.417136879
O 5.780336505 1.326244282 -1.947654829
H 5.252842040 -0.286780075 -2.588237837
H 4.839483744 3.714049055 0.884443151
H 5.616378651 0.649188330 1.925329888

