15

C -3.990038604 -0.572807320 -0.941211374
C -3.313877325 -1.310556361 1.489609442
O 0.453219404 -1.042946254 1.988618554
C 1.619870796 -0.101953181 0.168407762
O 0.763821215 -0.001943205 -2.073266606
C 4.198757437 1.058675409 0.621276698
O 5.357772447 1.868786542 -1.608679403
H -4.832454568 1.280780192 -1.178686831
H -1.630533614 -0.295635256 -1.753199799
H -4.650145092 -2.033558830 -2.221775174
H -3.170689375 -3.287666937 1.983473623
H -3.480635394 -0.033401419 3.075980497
H 3.922841474 2.629389307 1.947337373
H 5.368495338 -0.352153638 1.577865586
H 4.110788967 1.720728276 -2.929736841

