12

C -2.742125133 1.075902927 -0.696425228
C -1.771496865 0.530232301 1.673303332
O -2.209024852 1.198028159 3.818233417
N 0.588190352 -1.135468228 1.471493205
C 2.102921889 -1.301439434 -0.418483573
N 3.347722055 -2.535765434 -1.886047130
H 0.312447676 2.157516001 -1.530733757
H -2.474905614 -0.239475392 -2.238036664
H -4.364137027 2.313801057 -0.776351781
H 1.335344144 -1.484216523 3.200969288
H 1.868538837 1.888619822 -1.630810666
H 4.611110285 -1.677400787 -3.032090795

