14

C -3.705737189 0.534904138 -0.005139923
C -1.464391690 -0.737406415 1.343521273
O -1.139173849 -0.153160904 3.717419967
C 0.902290859 -0.541984167 -0.037405126
C 2.423749650 0.762083611 -1.901069848
C 3.578161778 -0.506492012 0.441065970
H -3.780629378 -0.007364055 -1.997016213
H -5.448508100 -0.032588724 0.927632539
H -3.513457045 2.580029755 0.160269298
H -1.758266250 -2.861551516 0.911384958
H 2.180197533 2.795670825 -2.032101738
H 2.815866064 -0.165673952 -3.685253635
H 4.678288915 -2.195450666 0.069555660
H 4.177995262 0.586560237 2.067052846

