14

C -3.798845526 -0.549679189 -0.407994705
C -0.987077730 -0.614341762 -0.935414583
H -0.588976686 -1.727575415 -2.622668099
O -0.088159276 1.896737197 -1.420720705
C 1.196447517 2.790389683 0.609296023
O 2.023814646 4.888310771 0.749047827
N 1.326122980 0.904238562 2.380734797
H 2.600267721 1.088050974 3.773000535
C 0.604284450 -1.503646422 1.329125207
H -0.518353936 -2.624179200 2.646923433
H 2.238040633 -2.622016673 0.728374223
H -4.528361389 -2.466532445 -0.183283422
H -4.794803456 0.351241089 -1.969376210
H -4.186921421 0.512195413 1.318024370

