10

N -0.743734220 -3.016059001 -1.247323366
C -0.036501893 1.251174930 1.314099314
C 0.486447082 -1.073430315 -0.176981714
C 2.449300392 0.292507853 0.301970241
C -1.316544280 3.373389487 0.112282292
N -2.335582475 5.047788387 -0.820024334
H 0.245733957 -4.448341163 -1.997466346
H -2.533870114 -3.362158108 -0.735134019
H -0.480670227 1.110078435 3.321054032
H 4.420400126 0.737832964 0.154839037

