10

O 2.309351319 1.420716302 2.178540489
C 2.602537527 -0.022526216 0.133997532
C 0.925294268 -1.209273825 -1.318657674
O -1.703612857 -1.397637152 -1.096104987
C -3.163984041 0.310876747 -0.017462657
O -2.513139365 2.215325633 1.041628718
H 4.566177984 -0.272480158 -0.396919663
H 1.558354258 -2.331685822 -2.896075149
H 0.555674402 1.990881255 2.234826265
H -5.143887348 -0.257754618 -0.228629838

