12

C -3.745513410 0.846316283 0.381303627
C -1.049117438 0.217915053 0.030068169
C 0.056044042 -2.050693619 -1.475250982
O 2.011558261 -0.713754641 -2.753921201
C 2.717262385 -0.367917582 -0.258199271
O 5.213380609 -0.077931172 0.088711039
N 0.889131543 1.305307345 0.975739392
H -3.945412023 2.562101867 1.497552604
H -4.662017428 1.098918676 -1.451946369
H -4.708850681 -0.714893522 1.326290486
H 2.025905137 -2.472012160 0.504504265
H 5.472043694 0.471425006 1.803056784

