15

O 3.853737931 0.715882850 -0.905867657
C 1.814042140 0.653848584 0.806156258
C -0.311829037 2.403183780 -0.135193558
C -2.188106793 -0.466690335 0.348603712
O -4.418075518 -0.008836832 1.300853298
C -1.085977340 -2.213597592 -1.530073978
C 0.279161889 -1.744099559 0.966594440
H 5.047244883 -0.564808109 -0.434872393
H 2.426013618 1.234226676 2.694675754
H -0.538456786 4.093086938 1.034790348
H -0.213500861 2.897583812 -2.124758374
H -2.812969359 1.874008762 0.597533120
H -2.149566812 -3.962648781 -1.598706846
H -0.233913418 -1.632426212 -3.298771156
H 0.611998596 -3.232102016 2.328419355

