12

O 0.020296736 3.039122844 -1.873991774
C 0.127453391 0.881976926 -0.467923325
C -1.544666311 -1.312216372 -0.941655762
C -1.886212954 0.353099238 1.372442567
C 3.245002136 -1.469689764 1.675018995
O 2.731888846 0.416717114 0.229548661
H 0.645185248 2.691179175 -3.543268968
H -0.744600772 -3.166198516 -0.607519265
H -2.899254557 -1.143719075 -2.463568769
H -1.289935330 -0.459791285 3.153108837
H -3.461751701 1.652623624 1.417994831
H 5.331918914 -1.346535310 1.868371917

