12

O -0.111169300 2.457516467 -2.133739448
C 0.164628329 0.507441674 -0.420244779
C -1.650171459 -1.683284166 -0.556287202
C -1.840065577 0.160897499 1.571140051
C 2.803557560 -0.037901613 0.280104050
O 4.550759500 1.130347524 -0.595679582
H 1.580153572 3.037188520 -2.507599255
H -0.955859416 -3.570088037 -0.176784673
H -3.019926703 -1.538615937 -2.065735707
H -1.278315952 -0.427519431 3.448501886
H -3.339252869 1.547396190 1.497586241
H 3.095662334 -1.583378673 1.658738400

