12

O 0.086926476 2.916859491 -1.535497624
C 0.133871392 0.665802935 -0.350121634
C -1.649686479 -1.384876682 -0.881869458
C -1.924109049 0.256671862 1.507542320
C 3.111732698 -0.927353087 1.256835132
O 3.431513456 0.002091303 -0.941139508
H 0.843878347 2.730984631 -3.180666316
H -1.078399727 -3.319761875 -0.604427692
H -2.954540214 -1.047437188 -2.422876691
H -1.503733463 -0.641418136 3.282467695
H -3.395206696 1.683455810 1.518152187
H 4.937473395 -0.919899364 2.356395843

