12

O 4.138071094 -1.712575998 -0.300831662
C 2.208989665 -0.593763098 -1.601425860
C -1.381556906 0.310509233 2.021402090
C -2.789766905 0.502892839 -0.503815385
C -0.025763354 0.387554671 -0.403942490
O 1.850340301 2.061329149 -1.289135616
H 4.048492274 -1.190613913 1.437488717
H 2.190483785 -1.248319592 -3.543917541
H -1.470215485 -1.459738315 3.046215572
H -1.347423312 1.993903324 3.183808987
H -3.638418228 2.312258077 -0.942924354
H -3.826849661 -1.131071856 -1.166579753

