12

O 4.241576364 -1.374136575 -0.469821782
C 1.950766074 -1.232484141 -1.253982232
C -1.526426031 0.106173317 1.969871885
C -2.551877258 0.506559097 -0.660900078
C 0.243296097 0.630905854 -0.220106833
O 1.751797112 2.643048040 -0.530551551
H 4.428340718 0.146614477 0.596405766
H 1.549334766 -2.488392778 -2.839304413
H -1.647589299 -1.762387005 2.796834859
H -1.679715909 1.663937811 3.288184759
H -3.440001671 2.300068361 -1.075328771
H -3.348379774 -1.111626668 -1.634761101

