17

C -3.978707485 -1.020728272 -0.581746216
C -1.269069390 -0.135086713 -0.761426932
O -1.046955932 2.138755594 0.636493585
C 1.317158497 3.312638137 0.208025606
C 3.647116694 1.831042740 0.226152502
C 3.220700788 -0.853108412 0.695581088
C 0.620001491 -2.070571667 0.227539409
H -5.260563026 0.392827574 -1.358105858
H -4.484805148 -1.343842035 1.391977347
H -4.230886013 -2.785676744 -1.619853146
H -0.812728177 0.280463797 -2.753048260
H 1.369944690 4.203356275 -1.689512609
H 1.479826897 4.889669050 1.534133714
H 0.808056377 -3.607923037 -1.137315946
H 3.546789943 -0.598016380 2.764372350
H 4.805382124 -2.035311986 0.111972414
H -0.114906970 -2.900246946 1.970471382

