11

O 3.596379758 2.128479207 -0.996304185
C -0.461920591 0.387361900 -0.648345550
C -2.422839464 -0.504472348 1.143103232
N -1.671121189 -2.076926779 -0.965138898
C 2.240825352 0.308181676 0.151378911
O 3.133113588 -1.139291125 1.645542688
H 5.304291667 1.989317602 -0.368132803
H -0.938692407 1.892572222 -1.949936711
H -1.811806745 -1.190370422 2.971665895
H -4.236091547 0.447615912 1.093406326
H -2.945016070 -1.981010970 -2.389431090

