8

C 3.105541199 -1.444591139 0.103902112
O 3.165582749 -2.214332223 -2.336853675
H 2.289949406 -0.967574074 -3.333353107
C 2.034725566 0.680706921 0.885234077
O 0.997667623 2.298949888 -0.876288492
H -0.461426654 3.111520122 -0.180217889
H 2.050005854 1.259641092 2.846525415
H 4.050078775 -2.717906819 1.390478756

