12

O -2.654327513 1.481272594 -1.164996106
C -2.415372495 -0.473020181 0.229192561
C 1.536453939 -1.366818194 0.040175218
O 1.848213018 -1.563290487 -2.476582481
C 1.591879587 0.922944034 1.277879028
O 1.323737484 3.003442830 0.027001182
H -0.789128635 2.756170239 -0.723366619
H -2.649725689 -2.326941211 -0.648946030
H -2.916874911 -0.379582748 2.236305581
H 1.743750243 -3.138318347 1.040801358
H 1.842913035 0.123006317 -3.177309161
H 1.606886261 0.944892958 3.340767636

