13

C -4.830339737 0.507178152 0.250590005
O -2.633598294 -0.880335095 0.965766117
C -0.466072754 -0.055926936 -0.078305810
N -0.145207500 1.765630531 -1.553727604
N 4.454656439 1.394645867 -1.597373569
C 4.131812415 -0.496666192 -0.103967724
C 1.743128202 -1.602137928 0.242063221
H -6.382102158 -0.296049143 1.330466667
H -4.607254375 2.508595046 0.707107567
H -5.191060846 0.312014627 -1.769606477
H 6.132066920 2.290017077 -1.263752305
H 5.685122144 -1.302624236 0.999871932
H 1.498161889 -3.633163315 0.388546022

