13

C -4.184037453 0.527959829 -0.416457768
C -1.662921894 0.686106001 -0.327990088
C -0.309441973 2.951049474 -1.175700554
H -0.988553285 4.718849449 -1.943705584
N 2.053741464 2.457268611 -0.826482095
H 3.510977271 3.630944304 -1.211144597
C 2.379614454 -0.061703583 0.227240908
N 4.946031775 -0.693203642 0.656381856
H 5.207735128 -1.161006799 2.489886814
H 5.434613000 -2.221915543 -0.380201463
C 0.146555102 -1.238182288 0.576055400
H -5.351709922 2.060749211 -1.119757536
H -5.113208476 -1.177026442 0.234176562

