10

N 5.758842080 -2.697927538 -0.931776312
C 3.743273424 -2.318976809 -0.228748985
C 1.222879551 -1.870197241 0.530116082
N -0.163943190 -1.978919705 2.430047654
C -1.321103943 -1.051354855 -0.043304699
C -1.866195349 1.696495619 -0.246987923
N -0.134546856 3.280311707 0.170437612
H -2.638372763 -2.347152493 -0.931979911
H -3.805517336 2.203278800 -0.758016902
H -0.763288539 5.088142581 0.009070118

