10

O 3.858950760 -0.684479230 -0.889558640
C 1.935403016 -0.284228302 0.649285368
C -0.270189281 -1.801717743 0.294770895
N -2.563314410 -1.121894665 -0.073308788
C -1.655506155 3.204797023 -0.229912679
N 0.521741704 3.085922591 -0.291402723
H 5.350325168 0.029927064 -0.135595578
H 0.226853344 -3.758254757 0.775065066
H -3.793196983 -2.556548604 0.255158172
H -3.621698744 3.645487429 -0.194853251

