16

C 2.191065953 3.059225164 -0.041250737
C 1.247372801 2.566889375 -2.695165647
N 1.208698668 0.587578856 -0.670795289
C 2.005489745 -1.985914110 -0.085556991
C -0.599308764 -1.085142969 0.379517666
C -2.525073628 -0.800147099 2.356370823
C -3.227201086 -1.577526267 -0.329934446
H 1.018395443 4.154623186 1.242783734
H 4.182319787 3.018562302 0.482898705
H 2.866255460 2.088842088 -3.896775272
H 3.283502736 -2.204146335 1.500334469
H 2.367599179 -3.169959392 -1.716044685
H -3.011032934 1.101175444 2.937097645
H -2.625357973 -2.214122558 3.831164227
H -3.810917096 -3.510158056 -0.654900821
H -4.109099381 -0.164078646 -1.519381454

