11

O 4.020354838 -0.527701447 -0.334200163
C 1.489355444 -0.202345826 -0.215739544
C -0.242255954 -2.079607790 -0.878483673
N -2.779126084 -1.063882832 -0.613514043
C -2.425937519 1.273958753 0.312075419
C 0.113138640 1.913754918 0.521444148
H 4.850951698 0.969376382 0.258348238
H 0.053852943 -3.774258866 -1.972221438
H -1.843082506 -2.628747934 0.874288708
H -4.040423521 2.401422593 0.854435094
H 0.866549656 3.690379687 1.192212300

