14

C 4.276750686 0.337708326 -0.605823009
O 2.217933418 2.002348907 -0.089431856
C 0.763978024 1.332128908 1.799351579
C -2.122200478 -1.563313070 0.191151788
C -4.383883569 -0.054470770 0.708094117
O -5.721902054 -0.316909320 2.542286463
H 5.638418130 1.394273931 -1.724420064
H 3.586600596 -1.278514770 -1.689772257
H 5.118519154 -0.311153498 1.158357101
H -0.730816543 2.751318859 2.025690124
H -0.197662650 -0.840887175 1.757801282
H -2.204791242 -3.460809805 0.988128984
H -1.459571962 -1.505472125 -1.752071614
H -4.783750694 1.468396265 -0.680275175

