16

C -2.486933380 2.715462118 -0.284813607
C -0.168291903 1.178315349 -0.151975630
C -0.059696429 -1.518946420 0.231774229
C -2.188842766 -3.293098614 -0.033002933
C 2.675370822 -2.091985345 0.012676680
C 3.918186738 0.070929642 -0.463687617
N 2.196372455 2.034731745 -0.624675427
H -3.460328813 2.369136584 -2.084149935
H -2.117280689 4.735826597 -0.107366509
H -3.804459978 2.140305320 1.198555015
H -1.954486699 -5.057130210 0.990711446
H -4.056141148 -2.461199487 0.178448954
H -0.358089457 -1.182760930 2.342742591
H 3.491893343 -3.948743288 0.194781593
H 5.912238576 0.431026706 -0.681734649
H 2.670513452 3.871049429 -0.684800144

