11

C 2.766373286 -0.245065504 -0.170484477
N 0.069289000 0.026558551 -0.033148083
C -1.146137886 2.137310653 -0.242122804
O -3.556586114 2.147985678 -0.087243742
C -2.239138488 -2.273272422 0.428793616
O -1.460892219 -4.318991394 0.651767825
H 3.269896576 -1.526679595 -1.705149166
H 3.489478046 -1.043236422 1.587976244
H 3.680739022 1.580316844 -0.497325782
H -0.163887915 3.936984184 -0.549398640
H -3.812025515 -0.031954229 0.227418032

