8

C 1.421898231 -1.012467429 1.333343038
O 1.032823256 0.112403083 -0.887433605
H -0.704684069 0.636095911 -0.896494710
O 3.757802677 -1.772221253 1.464758844
C 5.527450993 -1.378061290 -0.571971759
H 7.289340755 -2.206655532 0.077553737
H 4.876725692 -2.315225400 -2.284225199
H 5.770915786 0.632487025 -0.936561590

