14

C -4.403972397 0.098850931 -0.200063207
C -3.063823567 1.594991569 1.452261235
C 0.796415589 0.350228725 0.502042443
O 0.237721046 -1.241898662 -1.182954797
O 3.193234582 0.631743853 1.008577371
C 5.018228308 -0.861255494 -0.353818903
H -5.327042079 -1.596433487 0.487450356
H -5.130688499 0.902404696 -1.939298365
H -1.837906338 -1.056819357 -1.176030746
H -2.673510500 3.559757546 1.041223561
H -2.873009190 1.101537118 3.427606070
H 6.852030180 -0.301871881 0.380800903
H 4.683500799 -2.865092711 -0.022334220
H 4.894552083 -0.467303892 -2.370461623

