8

O -1.547856678 -2.616252611 1.654564618
C -1.102077939 -1.105604697 0.008759523
C -0.828678467 2.060929604 0.904445430
O -2.105475495 3.597977881 1.831180104
C 1.711167094 1.424526273 0.175836484
C 2.145060023 -0.651560239 -0.943721668
H -1.853652462 -0.882442196 -1.902083403
H 3.566766503 -1.863609221 -1.732320215

