8

O -0.341945904 0.996965363 -2.031257219
C -0.073475764 2.920123634 -0.221487920
H -1.238835567 4.501654268 -0.815793540
C 0.399284674 2.361260716 2.473134751
H -0.322281944 1.617504368 4.226224191
C 2.294084373 3.282358261 1.213710562
H 4.252415493 3.840925720 1.187578484
H 0.681512152 -0.412532523 -1.522786476

