17

C -4.365567984 -0.238615680 0.525651000
C -1.851945416 0.255713298 -0.743442975
C 0.134819071 1.887930923 0.649436470
C 2.160076032 0.118081464 -0.400967532
C 6.514146375 -0.288203926 0.847049402
O 4.147990039 -0.566006517 1.336374518
C 0.132280035 -1.890926913 -0.833150353
H -4.093498558 -0.982435995 2.432794938
H -5.477374252 1.494254994 0.672016449
H -5.478457651 -1.613012621 -0.538690583
H -2.154147149 1.001806614 -2.645864072
H 0.279030138 3.892905434 0.206448346
H -0.017815544 1.643027009 2.692932425
H 6.644993203 0.541773236 -1.110299514
H 3.049033153 0.802849747 -2.136131917
H -0.017669676 -3.099739872 0.832683307
H 0.270608913 -3.059581264 -2.521716643

