13

O 1.984803424 2.940202711 -0.097896978
C 3.153511575 0.967429246 0.756868270
C 2.314765328 -1.494995521 1.039833271
C -0.100573265 -2.569312722 1.075905119
C -2.311398724 -0.728300807 1.213893091
C -3.005421411 -0.113149449 -1.456070167
O -2.086483842 1.662316426 -2.580062523
H 0.328336343 2.562354296 -0.926321353
H 5.114437535 1.400327744 1.216160894
H 3.882387993 -2.789850563 1.359189521
H -1.925407499 1.052835966 2.206216133
H -3.909505979 -1.675696367 2.110022573
H -4.348109296 -1.361589851 -2.437655994

