13

O 3.206543564 2.533604173 -1.474125933
C 3.455799914 1.226144185 0.638927741
C 1.986648987 -0.856767073 1.216540143
C 0.175455950 -2.445227125 0.810550003
C -2.526537524 -1.712894587 1.108142524
C -3.351814219 0.408517970 -0.601332093
O -1.999906568 1.745878112 -1.859564168
H 1.500898231 2.194820329 -2.114770415
H 5.000850368 1.842907253 1.833903312
H 4.206741209 -1.492649123 0.840014292
H -2.971893153 -1.075902379 3.035093324
H -3.845931699 -3.269382684 0.744023348
H -5.422473589 0.693893676 -0.688272232

