9

C -0.900139292 -1.889708871 -1.100938718
H -1.916332637 -3.666991624 -1.031837688
H -1.728660628 -0.437536831 -2.301416491
N 1.868639559 -2.190871689 -1.141637693
C 2.392978446 0.428036724 -0.351161570
H 1.667254526 1.952124333 -1.528807748
H 4.286779709 0.699529482 0.381193286
C 0.604397777 -1.115822125 1.088272979
H 0.739022981 -1.915088895 2.959315268

