12

C 2.615457339 0.039107145 -1.229858064
C 2.619122482 -0.558164078 1.188492318
C -0.313386114 -0.609762010 1.698125716
C -1.377183853 -1.558074976 -0.820238931
O -0.064044103 0.355422127 -2.273308081
C -0.749396406 2.062548646 1.086913624
H 3.987507883 0.198879048 -2.728810047
H -0.902011538 -1.358441587 3.516949222
H -0.809879566 -3.456422635 -1.387632110
H -3.405965757 -1.274720143 -1.073700659
H -2.479002408 2.742249421 0.216268913
H 0.529655141 3.490896928 1.814220965

