16

C 2.777234865 -1.565001559 -0.413876969
C 0.779098630 -0.344387676 1.241244892
C 0.471800117 2.530980610 0.796333499
C -1.771093673 1.965348145 -0.983493184
C -1.963028355 -0.647617004 0.232339654
O -2.527535677 -2.611801683 -1.464388685
H 2.681240879 -3.623610901 -0.312581488
H 2.544662756 -1.040883127 -2.395643603
H 4.663693578 -0.983063347 0.188460100
H 1.049693484 -0.913156614 3.207910139
H -0.115397524 3.531590895 2.499276202
H 2.092081135 3.508801819 -0.018926495
H -3.429009494 3.183185000 -0.902815069
H -1.167427749 1.786595606 -2.945992586
H -3.310087347 -0.630490586 1.806959371
H -2.775925625 -4.146489559 -0.534805778

