16

C 2.978774648 -1.552812088 -0.608853487
C 0.879896546 -0.522804316 1.060284756
C 0.413529694 2.359836014 0.828072602
C -1.776742877 1.844389630 -1.035662135
C -1.711927425 -0.934767238 -0.220237224
O -2.490503168 -2.922285726 -1.471385887
H 2.838372267 -3.602950261 -0.760612157
H 2.878629783 -0.779787152 -2.519713874
H 4.820525747 -1.064756415 0.180195874
H 1.053764426 -1.273104786 2.971412256
H -0.233303679 3.206529939 2.590418997
H 1.990173704 3.465896456 0.102012424
H -3.542007992 2.880894847 -0.841654290
H -1.183368533 1.907771403 -3.011695264
H -3.314963615 -0.797688527 1.962365515
H -3.597903464 -2.169588479 0.768762905

