15

O -0.419245983 4.947947901 0.296518362
C -0.304717449 2.683772242 0.148083928
C -2.477717432 0.945596956 -0.619410196
C -1.837469075 -1.642177653 0.520612291
C 1.003936373 -1.603199916 0.971215614
C 2.616934576 -0.851717441 -1.197422351
C 1.926295254 1.091646065 0.784966551
H -2.573214212 0.901435436 -2.682923264
H -4.258633561 1.732073134 0.044769010
H -2.806939848 -1.872497038 2.327384597
H -2.403776568 -3.214348246 -0.689029766
H 1.789296724 -2.854431311 2.384673554
H 1.787560841 -0.693504978 -3.062783084
H 4.568655396 -1.458035860 -1.192834455
H 3.389034926 1.887440690 1.966179228

