12

O -4.858618827 -0.648341374 0.682355802
C -2.655046988 -0.357248944 0.349208179
C -1.024178194 1.936958374 -0.285845340
C 1.185912898 0.069906884 -0.823489204
C -0.400099354 -2.155099967 0.268226158
C 3.568048304 0.601712098 0.435665549
N 5.431540457 1.022476930 1.461243009
H -1.662129967 3.105823297 -1.854299278
H -0.703894125 3.129034954 1.365617292
H 1.534386748 -0.151169000 -2.840408844
H 0.188867222 -2.729503445 2.158632773
H -0.604788157 -3.824549788 -0.916906095

