10

C -3.922912792 -0.226242925 -0.461408135
C 0.583649302 1.046954156 -0.001908699
N -1.457709883 0.808256802 -0.867814601
O 4.571878191 -2.251918385 -0.189217559
C 4.711717849 -0.130872510 0.608293580
N 2.725724200 1.587969649 0.798451429
H -4.083052379 -2.010114850 -1.477181318
H -4.270578992 -0.550669651 1.543748527
H -5.334886276 1.076542051 -1.196750553
H 6.488930209 0.683798929 1.307847174

