10

C 2.018248949 0.040863287 1.366480878
C 3.200435762 -1.676420983 -0.477021128
H 5.155484049 -1.113881357 -0.828175838
H 2.207540548 -1.579930546 -2.284057788
H 3.180118711 -3.625421636 0.189957746
C 0.913423216 0.471061083 3.487981912
H 0.159531870 -0.203489167 5.250843050
C 1.330239956 2.749701083 1.848959535
H 2.804543656 4.104482157 2.337103251
H -0.261409991 3.591708790 0.846233588

