8

O -2.711012342 0.971633905 2.193902942
C -0.338430220 1.369124322 1.807980182
C 0.418717124 0.841219824 -0.825683440
O 0.401977609 2.455286685 -2.440379184
C 1.539286260 -1.767965893 -1.369604596
O 1.382359227 -3.484514586 0.093967028
H -3.126957578 1.408327011 3.917951713
H 2.420355608 -1.924167555 -3.261041565

