8

O -3.482509908 0.448839397 1.925639727
C -1.120268953 0.971011089 1.722072231
C 0.203151530 0.853090611 -0.773316295
O 0.137747636 2.601152585 -2.224864177
C 1.823839746 -1.478513008 -1.292579793
O 1.878924148 -3.232911650 0.130812965
H -2.333001808 1.108287560 3.725393931
H 2.878413296 -1.402012851 -3.096063599

