28

C     3.19366  -1.30988   0.42054
C     2.40311  -0.12513   0.88023
O     2.59425   0.47840   1.93177
N     1.40249   0.30543  -0.03794
N     0.56247   1.09204   0.48890
C    -0.55445   1.48159  -0.15984
C    -1.55087   2.24288   0.49458
N    -2.38928   2.87837   0.99969
C    -0.63590   1.31714  -1.56900
N    -0.69494   1.29131  -2.73178
C    -1.45053  -0.91124   0.30668
C    -2.56812  -0.79199  -0.71055
C    -1.81377  -0.54971   1.73114
C    -0.33047  -1.56471   0.07434
C     0.14845  -2.06135  -1.19359
O     0.97985  -2.97045  -1.30714
H     3.91686  -1.60003   1.20396
H     3.73641  -1.03509  -0.49291
H     2.56982  -2.19256   0.15511
H     0.65685   1.38094   1.48699
H    -3.22958   0.04852  -0.57336
H    -3.12248  -1.72077  -0.49157
H    -2.22610  -0.84734  -1.75007
H    -2.13253  -1.50785   2.13352
H    -2.63873   0.16645   1.82900
H    -0.95751  -0.19616   2.34269
H     0.30555  -1.85215   0.95292
H    -0.26550  -1.59192  -2.11784
28

C     3.19410  -1.31266   0.42080
C     2.39901  -0.13139   0.88050
O     2.59425   0.47856   1.92642
N     1.39007   0.28874  -0.03193
N     0.56303   1.09833   0.48832
C    -0.56485   1.46332  -0.15657
C    -1.55460   2.23881   0.49408
N    -2.38817   2.87929   0.99917
C    -0.63820   1.31671  -1.56900
N    -0.69402   1.29308  -2.73157
C    -1.44375  -0.88749   0.30333
C    -2.56486  -0.79359  -0.70934
C    -1.81207  -0.54796   1.72999
C    -0.31275  -1.54723   0.07421
C     0.15271  -2.05808  -1.19477
O     0.97729  -2.97131  -1.30577
H     3.91704  -1.60033   1.20417
H     3.73663  -1.03500  -0.49247
H     2.57101  -2.19394   0.15482
H     0.65290   1.37771   1.48773
H    -3.23118   0.04589  -0.57287
H    -3.11802  -1.72290  -0.48997
H    -2.22619  -0.84702  -1.75006
H    -2.13042  -1.50910   2.12978
H    -2.63950   0.16521   1.82997
H    -0.95813  -0.19581   2.34390
H     0.30350  -1.85394   0.95282
H    -0.26479  -1.59153  -2.11814
28

C     3.19454  -1.31544   0.42106
C     2.39491  -0.13765   0.88077
O     2.59424   0.47872   1.92107
N     1.37765   0.27205  -0.02591
N     0.56358   1.10463   0.48773
C    -0.57525   1.44504  -0.15330
C    -1.55834   2.23474   0.49358
N    -2.38707   2.88021   0.99865
C    -0.64050   1.31628  -1.56899
N    -0.69310   1.29485  -2.73137
C    -1.43697  -0.86373   0.29998
C    -2.56159  -0.79519  -0.70813
C    -1.81036  -0.54621   1.72885
C    -0.29503  -1.52975   0.07407
C     0.15698  -2.05481  -1.19594
O     0.97472  -2.97217  -1.30439
H     3.91722  -1.60062   1.20437
H     3.73686  -1.03491  -0.49204
H     2.57221  -2.19533   0.15453
H     0.64894   1.37447   1.48846
H    -3.23278   0.04327  -0.57238
H    -3.11355  -1.72503  -0.48837
H    -2.22628  -0.84670  -1.75005
H    -2.12832  -1.51035   2.12604
H    -2.64026   0.16397   1.83094
H    -0.95876  -0.19546   2.34510
H     0.30146  -1.85573   0.95272
H    -0.26408  -1.59114  -2.11845
28

C     3.19498  -1.31822   0.42132
C     2.39081  -0.14391   0.88104
O     2.59424   0.47889   1.91573
N     1.36524   0.25536  -0.01990
N     0.56413   1.11092   0.48715
C    -0.58564   1.42677  -0.15003
C    -1.56207   2.23067   0.49309
N    -2.38597   2.88113   0.99814
C    -0.64281   1.31584  -1.56899
N    -0.69217   1.29662  -2.73117
C    -1.43019  -0.83998   0.29663
C    -2.55832  -0.79679  -0.70692
C    -1.80866  -0.54445   1.72770
C    -0.27731  -1.51227   0.07394
C     0.16125  -2.05153  -1.19712
O     0.97216  -2.97303  -1.30302
H     3.91741  -1.60092   1.20458
H     3.73708  -1.03482  -0.49160
H     2.57340  -2.19672   0.15424
H     0.64499   1.37123   1.48920
H    -3.23438   0.04064  -0.57189
H    -3.10909  -1.72716  -0.48677
H    -2.22637  -0.84638  -1.75005
H    -2.12622  -1.51160   2.12230
H    -2.64103   0.16273   1.83191
H    -0.95939  -0.19512   2.34630
H     0.29941  -1.85752   0.95263
H    -0.26336  -1.59075  -2.11875
28

C     3.19542  -1.32100   0.42158
C     2.38671  -0.15017   0.88131
O     2.59423   0.47905   1.91038
N     1.35282   0.23867  -0.01389
N     0.56468   1.11722   0.48656
C    -0.59604   1.40850  -0.14677
C    -1.56580   2.22659   0.49259
N    -2.38487   2.88205   0.99762
C    -0.64511   1.31541  -1.56898
N    -0.69125   1.29839  -2.73096
C    -1.42341  -0.81623   0.29328
C    -2.55506  -0.79839  -0.70571
C    -1.80695  -0.54270   1.72655
C    -0.25959  -1.49479   0.07380
C     0.16552  -2.04826  -1.19830
O     0.96960  -2.97389  -1.30164
H     3.91759  -1.60121   1.20479
H     3.73730  -1.03472  -0.49117
H     2.57460  -2.19811   0.15395
H     0.64104   1.36800   1.48994
H    -3.23598   0.03801  -0.57140
H    -3.10463  -1.72929  -0.48517
H    -2.22646  -0.84606  -1.75004
H    -2.12412  -1.51285   2.11856
H    -2.64179   0.16149   1.83288
H    -0.96002  -0.19477   2.34751
H     0.29736  -1.85930   0.95253
H    -0.26265  -1.59036  -2.11906
28

C     3.19586  -1.32379   0.42185
C     2.38261  -0.15643   0.88158
O     2.59423   0.47922   1.90503
N     1.34041   0.22198  -0.00787
N     0.56524   1.12351   0.48598
C    -0.60644   1.39022  -0.14350
C    -1.56953   2.22252   0.49209
N    -2.38377   2.88297   0.99710
C    -0.64741   1.31497  -1.56898
N    -0.69033   1.30017  -2.73076
C    -1.41663  -0.79248   0.28993
C    -2.55179  -0.79999  -0.70450
C    -1.80524  -0.54095   1.72541
C    -0.24187  -1.47731   0.07367
C     0.16978  -2.04499  -1.19948
O     0.96703  -2.97475  -1.30027
H     3.91777  -1.60151   1.20499
H     3.73752  -1.03463  -0.49073
H     2.57579  -2.19950   0.15366
H     0.63709   1.36476   1.49068
H    -3.23758   0.03538  -0.57090
H    -3.10016  -1.73142  -0.48357
H    -2.22655  -0.84574  -1.75003
H    -2.12202  -1.51410   2.11483
H    -2.64256   0.16025   1.83386
H    -0.96064  -0.19442   2.34871
H     0.29532  -1.86109   0.95243
H    -0.26194  -1.58997  -2.11936
28

C     3.19630  -1.32657   0.42211
C     2.37851  -0.16269   0.88185
O     2.59422   0.47938   1.89969
N     1.32799   0.20529  -0.00186
N     0.56579   1.12980   0.48539
C    -0.61683   1.37195  -0.14023
C    -1.57327   2.21845   0.49159
N    -2.38267   2.88388   0.99658
C    -0.64972   1.31454  -1.56897
N    -0.68941   1.30194  -2.73056
C    -1.40985  -0.76873   0.28658
C    -2.54852  -0.80160  -0.70329
C    -1.80354  -0.53919   1.72426
C    -0.22415  -1.45983   0.07353
C     0.17405  -2.04172  -1.20065
O     0.96447  -2.97561  -1.29889
H     3.91796  -1.60180   1.20520
H     3.73774  -1.03454  -0.49030
H     2.57699  -2.20089   0.15337
H     0.63314   1.36152   1.49142
H    -3.23918   0.03276  -0.57041
H    -3.09570  -1.73355  -0.48197
H    -2.22664  -0.84542  -1.75002
H    -2.11991  -1.51535   2.11109
H    -2.64333   0.15901   1.83483
H    -0.96127  -0.19407   2.34991
H     0.29327  -1.86288   0.95233
H    -0.26123  -1.58958  -2.11967
28

C     3.19674  -1.32935   0.42237
C     2.37441  -0.16895   0.88212
O     2.59422   0.47954   1.89434
N     1.31558   0.18860   0.00415
N     0.56634   1.13610   0.48480
C    -0.62723   1.35368  -0.13697
C    -1.57700   2.21438   0.49109
N    -2.38157   2.88480   0.99606
C    -0.65202   1.31410  -1.56897
N    -0.68849   1.30371  -2.73035
C    -1.40307  -0.74498   0.28323
C    -2.54525  -0.80320  -0.70208
C    -1.80183  -0.53744   1.72312
C    -0.20642  -1.44235   0.07340
C     0.17832  -2.03844  -1.20183
O     0.96191  -2.97647  -1.29752
H     3.91814  -1.60209   1.20540
H     3.73796  -1.03445  -0.48986
H     2.57818  -2.20228   0.15308
H     0.62918   1.35829   1.49215
H    -3.24078   0.03013  -0.56992
H    -3.09123  -1.73568  -0.48037
H    -2.22673  -0.84510  -1.75001
H    -2.11781  -1.51660   2.10735
H    -2.64409   0.15777   1.83580
H    -0.96190  -0.19372   2.35112
H     0.29122  -1.86467   0.95223
H    -0.26052  -1.58919  -2.11997
28

C     3.19718  -1.33213   0.42263
C     2.37031  -0.17521   0.88239
O     2.59421   0.47971   1.88899
N     1.30316   0.17191   0.01017
N     0.56689   1.14239   0.48422
C    -0.63763   1.33541  -0.13370
C    -1.58073   2.21031   0.49059
N    -2.38047   2.88572   0.99554
C    -0.65432   1.31367  -1.56896
N    -0.68757   1.30548  -2.73015
C    -1.39629  -0.72123   0.27988
C    -2.54199  -0.80480  -0.70087
C    -1.80013  -0.53569   1.72197
C    -0.18870  -1.42487   0.07326
C     0.18259  -2.03517  -1.20301
O     0.95934  -2.97733  -1.29614
H     3.91833  -1.60239   1.20561
H     3.73819  -1.03436  -0.48943
H     2.57938  -2.20366   0.15279
H     0.62523   1.35505   1.49289
H    -3.24238   0.02750  -0.56943
H    -3.08677  -1.73781  -0.47877
H    -2.22682  -0.84477  -1.75000
H    -2.11571  -1.51785   2.10361
H    -2.64486   0.15653   1.83677
H    -0.96253  -0.19338   2.35232
H     0.28918  -1.86646   0.95214
H    -0.25981  -1.58880  -2.12028
28

C     3.19763  -1.33491   0.42289
C     2.36621  -0.18147   0.88266
O     2.59421   0.47987   1.88365
N     1.29075   0.15522   0.01618
N     0.56745   1.14869   0.48363
C    -0.64802   1.31713  -0.13043
C    -1.58446   2.20624   0.49009
N    -2.37937   2.88664   0.99503
C    -0.65663   1.31323  -1.56896
N    -0.68665   1.30725  -2.72995
C    -1.38951  -0.69747   0.27653
C    -2.53872  -0.80640  -0.69966
C    -1.79842  -0.53393   1.72082
C    -0.17098  -1.40739   0.07313
C     0.18686  -2.03190  -1.20418
O     0.95678  -2.97819  -1.29477
H     3.91851  -1.60268   1.20582
H     3.73841  -1.03427  -0.48899
H     2.58057  -2.20505   0.15250
H     0.62128   1.35182   1.49363
H    -3.24398   0.02488  -0.56894
H    -3.08230  -1.73994  -0.47717
H    -2.22691  -0.84445  -1.74999
H    -2.11361  -1.51910   2.09987
H    -2.64562   0.15530   1.83774
H    -0.96316  -0.19303   2.35352
H     0.28713  -1.86825   0.95204
H    -0.25910  -1.58841  -2.12058
28

C     3.19807  -1.33769   0.42316
C     2.36211  -0.18773   0.88294
O     2.59420   0.48004   1.87830
N     1.27833   0.13853   0.02219
N     0.56800   1.15498   0.48305
C    -0.65842   1.29886  -0.12716
C    -1.58819   2.20216   0.48959
N    -2.37827   2.88756   0.99451
C    -0.65893   1.31280  -1.56895
N    -0.68572   1.30902  -2.72974
C    -1.38273  -0.67372   0.27318
C    -2.53545  -0.80800  -0.69845
C    -1.79671  -0.53218   1.71968
C    -0.15326  -1.38991   0.07299
C     0.19112  -2.02863  -1.20536
O     0.95422  -2.97905  -1.29339
H     3.91869  -1.60298   1.20602
H     3.73863  -1.03418  -0.48856
H     2.58177  -2.20644   0.15221
H     0.61733   1.34858   1.49437
H    -3.24558   0.02225  -0.56845
H    -3.07784  -1.74207  -0.47557
H    -2.22700  -0.84413  -1.74998
H    -2.11151  -1.52035   2.09614
H    -2.64639   0.15406   1.83871
H    -0.96378  -0.19268   2.35473
H     0.28508  -1.87003   0.95194
H    -0.25838  -1.58802  -2.12088
28

C     3.19851  -1.34047   0.42342
C     2.35801  -0.19399   0.88321
O     2.59420   0.48020   1.87295
N     1.26592   0.12184   0.02821
N     0.56855   1.16127   0.48246
C    -0.66882   1.28059  -0.12390
C    -1.59193   2.19809   0.48909
N    -2.37717   2.88848   0.99399
C    -0.66124   1.31237  -1.56895
N    -0.68480   1.31079  -2.72954
C    -1.37595  -0.64997   0.26983
C    -2.53218  -0.80960  -0.69724
C    -1.79501  -0.53043   1.71853
C    -0.13554  -1.37243   0.07286
C     0.19539  -2.02535  -1.20654
O     0.95165  -2.97992  -1.29202
H     3.91888  -1.60327   1.20623
H     3.73885  -1.03408  -0.48812
H     2.58296  -2.20783   0.15192
H     0.61338   1.34534   1.49510
H    -3.24718   0.01962  -0.56796
H    -3.07337  -1.74420  -0.47397
H    -2.22709  -0.84381  -1.74998
H    -2.10941  -1.52160   2.09240
H    -2.64715   0.15282   1.83969
H    -0.96441  -0.19233   2.35593
H     0.28304  -1.87182   0.95184
H    -0.25767  -1.58764  -2.12119
28

C     3.19895  -1.34326   0.42368
C     2.35391  -0.20025   0.88348
O     2.59419   0.48036   1.86761
N     1.25350   0.10515   0.03422
N     0.56911   1.16757   0.48188
C    -0.67921   1.26231  -0.12063
C    -1.59566   2.19402   0.48859
N    -2.37607   2.88940   0.99347
C    -0.66354   1.31193  -1.56894
N    -0.68388   1.31256  -2.72934
C    -1.36917  -0.62622   0.26648
C    -2.52892  -0.81121  -0.69603
C    -1.79330  -0.52867   1.71738
C    -0.11782  -1.35495   0.07272
C     0.19966  -2.02208  -1.20771
O     0.94909  -2.98078  -1.29064
H     3.91906  -1.60356   1.20644
H     3.73907  -1.03399  -0.48769
H     2.58416  -2.20922   0.15163
H     0.60942   1.34211   1.49584
H    -3.24878   0.01699  -0.56747
H    -3.06891  -1.74633  -0.47237
H    -2.22718  -0.84349  -1.74997
H    -2.10730  -1.52286   2.08866
H    -2.64792   0.15158   1.84066
H    -0.96504  -0.19198   2.35713
H     0.28099  -1.87361   0.95174
H    -0.25696  -1.58725  -2.12149
28

C     3.19939  -1.34604   0.42394
C     2.34981  -0.20651   0.88375
O     2.59419   0.48053   1.86226
N     1.24109   0.08846   0.04023
N     0.56966   1.17386   0.48129
C    -0.68961   1.24404  -0.11736
C    -1.59939   2.18995   0.48809
N    -2.37497   2.89032   0.99295
C    -0.66584   1.31150  -1.56894
N    -0.68296   1.31434  -2.72913
C    -1.36239  -0.60247   0.26313
C    -2.52565  -0.81281  -0.69482
C    -1.79160  -0.52692   1.71624
C    -0.10010  -1.33747   0.07259
C     0.20393  -2.01881  -1.20889
O     0.94653  -2.98164  -1.28927
H     3.91924  -1.60386   1.20664
H     3.73929  -1.03390  -0.48725
H     2.58535  -2.21061   0.15134
H     0.60547   1.33887   1.49658
H    -3.25038   0.01437  -0.56697
H    -3.06445  -1.74847  -0.47077
H    -2.22727  -0.84317  -1.74996
H    -2.10520  -1.52411   2.08492
H    -2.64869   0.15034   1.84163
H    -0.96567  -0.19164   2.35834
H     0.27894  -1.87540   0.95165
H    -0.25625  -1.58686  -2.12180
28

C     3.19983  -1.34882   0.42421
C     2.34571  -0.21277   0.88402
O     2.59418   0.48069   1.85691
N     1.22867   0.07177   0.04625
N     0.57021   1.18016   0.48070
C    -0.70001   1.22577  -0.11410
C    -1.60312   2.18588   0.48759
N    -2.37387   2.89124   0.99244
C    -0.66815   1.31106  -1.56893
N    -0.68204   1.31611  -2.72893
C    -1.35561  -0.57872   0.25979
C    -2.52238  -0.81441  -0.69361
C    -1.78989  -0.52517   1.71509
C    -0.08238  -1.31999   0.07245
C     0.20819  -2.01554  -1.21007
O     0.94396  -2.98250  -1.28789
H     3.91943  -1.60415   1.20685
H     3.73952  -1.03381  -0.48682
H     2.58655  -2.21199   0.15105
H     0.60152   1.33563   1.49732
H    -3.25198   0.01174  -0.56648
H    -3.05998  -1.75060  -0.46917
H    -2.22736  -0.84285  -1.74995
H    -2.10310  -1.52536   2.08118
H    -2.64945   0.14910   1.84260
H    -0.96629  -0.19129   2.35954
H     0.27689  -1.87719   0.95155
H    -0.25554  -1.58647  -2.12210
28

C     3.20027  -1.35160   0.42447
C     2.34161  -0.21903   0.88429
O     2.59418   0.48086   1.85156
N     1.21626   0.05508   0.05226
N     0.57076   1.18645   0.48012
C    -0.71041   1.20749  -0.11083
C    -1.60686   2.18180   0.48710
N    -2.37277   2.89216   0.99192
C    -0.67045   1.31063  -1.56893
N    -0.68112   1.31788  -2.72873
C    -1.34883  -0.55497   0.25644
C    -2.51912  -0.81601  -0.69240
C    -1.78819  -0.52342   1.71395
C    -0.06466  -1.30251   0.07232
C     0.21246  -2.01226  -1.21124
O     0.94140  -2.98336  -1.28652
H     3.91961  -1.60445   1.20705
H     3.73974  -1.03372  -0.48638
H     2.58774  -2.21338   0.15076
H     0.59757   1.33240   1.49806
H    -3.25358   0.00911  -0.56599
H    -3.05552  -1.75273  -0.46757
H    -2.22745  -0.84253  -1.74994
H    -2.10100  -1.52661   2.07744
H    -2.65022   0.14786   1.84357
H    -0.96692  -0.19094   2.36074
H     0.27485  -1.87898   0.95145
H    -0.25483  -1.58608  -2.12241
28

C     3.20071  -1.35438   0.42473
C     2.33751  -0.22529   0.88456
O     2.59417   0.48102   1.84622
N     1.20384   0.03839   0.05827
N     0.57132   1.19274   0.47953
C    -0.72080   1.18922  -0.10756
C    -1.61059   2.17773   0.48660
N    -2.37167   2.89308   0.99140
C    -0.67275   1.31019  -1.56892
N    -0.68019   1.31965  -2.72852
C    -1.34205  -0.53122   0.25309
C    -2.51585  -0.81761  -0.69119
C    -1.78648  -0.52166   1.71280
C    -0.04693  -1.28503   0.07218
C     0.21673  -2.00899  -1.21242
O     0.93884  -2.98422  -1.28514
H     3.91979  -1.60474   1.20726
H     3.73996  -1.03363  -0.48595
H     2.58894  -2.21477   0.15047
H     0.59362   1.32916   1.49879
H    -3.25518   0.00649  -0.56550
H    -3.05105  -1.75486  -0.46597
H    -2.22754  -0.84221  -1.74993
H    -2.09890  -1.52786   2.07371
H    -2.65098   0.14662   1.84454
H    -0.96755  -0.19059   2.36195
H     0.27280  -1.88076   0.95135
H    -0.25412  -1.58569  -2.12271
28

C     3.20116  -1.35716   0.42499
C     2.33341  -0.23155   0.88483
O     2.59417   0.48118   1.84087
N     1.19143   0.02170   0.06429
N     0.57187   1.19904   0.47895
C    -0.73120   1.17095  -0.10429
C    -1.61432   2.17366   0.48610
N    -2.37057   2.89400   0.99088
C    -0.67506   1.30976  -1.56892
N    -0.67927   1.32142  -2.72832
C    -1.33527  -0.50746   0.24974
C    -2.51258  -0.81921  -0.68998
C    -1.78477  -0.51991   1.71165
C    -0.02921  -1.26755   0.07205
C     0.22100  -2.00572  -1.21360
O     0.93627  -2.98508  -1.28377
H     3.91998  -1.60503   1.20747
H     3.74018  -1.03354  -0.48551
H     2.59013  -2.21616   0.15018
H     0.58966   1.32593   1.49953
H    -3.25677   0.00386  -0.56501
H    -3.04659  -1.75699  -0.46437
H    -2.22763  -0.84189  -1.74992
H    -2.09679  -1.52911   2.06997
H    -2.65175   0.14538   1.84552
H    -0.96818  -0.19025   2.36315
H     0.27075  -1.88255   0.95125
H    -0.25341  -1.58530  -2.12302
28

C     3.20160  -1.35994   0.42525
C     2.32931  -0.23781   0.88510
O     2.59416   0.48135   1.83552
N     1.17901   0.00501   0.07030
N     0.57242   1.20533   0.47836
C    -0.74160   1.15268  -0.10103
C    -1.61805   2.16959   0.48560
N    -2.36947   2.89491   0.99036
C    -0.67736   1.30933  -1.56891
N    -0.67835   1.32319  -2.72812
C    -1.32849  -0.48371   0.24639
C    -2.50931  -0.82081  -0.68877
C    -1.78307  -0.51816   1.71051
C    -0.01149  -1.25006   0.07191
C     0.22527  -2.00244  -1.21478
O     0.93371  -2.98594  -1.28239
H     3.92016  -1.60533   1.20767
H     3.74040  -1.03344  -0.48508
H     2.59133  -2.21755   0.14989
H     0.58571   1.32269   1.50027
H    -3.25837   0.00123  -0.56452
H    -3.04212  -1.75912  -0.46277
H    -2.22772  -0.84157  -1.74992
H    -2.09469  -1.53036   2.06623
H    -2.65252   0.14414   1.84649
H    -0.96880  -0.18990   2.36435
H     0.26871  -1.88434   0.95116
H    -0.25269  -1.58491  -2.12332
28

C     3.20204  -1.36273   0.42552
C     2.32521  -0.24407   0.88537
O     2.59416   0.48151   1.83018
N     1.16660  -0.01168   0.07631
N     0.57297   1.21163   0.47778
C    -0.75199   1.13440  -0.09776
C    -1.62179   2.16552   0.48510
N    -2.36837   2.89583   0.98984
C    -0.67966   1.30889  -1.56891
N    -0.67743   1.32496  -2.72791
C    -1.32171  -0.45996   0.24304
C    -2.50605  -0.82242  -0.68756
C    -1.78136  -0.51640   1.70936
C     0.00623  -1.23258   0.07178
C     0.22953  -1.99917  -1.21595
O     0.93114  -2.98680  -1.28102
H     3.92034  -1.60562   1.20788
H     3.74062  -1.03335  -0.48464
H     2.59252  -2.21894   0.14960
H     0.58176   1.31945   1.50101
H    -3.25997  -0.00140  -0.56403
H    -3.03766  -1.76125  -0.46117
H    -2.22781  -0.84125  -1.74991
H    -2.09259  -1.53161   2.06249
H    -2.65328   0.14290   1.84746
H    -0.96943  -0.18955   2.36555
H     0.26666  -1.88613   0.95106
H    -0.25198  -1.58452  -2.12363
28

C     3.20248  -1.36551   0.42578
C     2.32111  -0.25033   0.88564
O     2.59415   0.48168   1.82483
N     1.15418  -0.02837   0.08233
N     0.57353   1.21792   0.47719
C    -0.76239   1.11613  -0.09449
C    -1.62552   2.16145   0.48460
N    -2.36727   2.89675   0.98933
C    -0.68197   1.30846  -1.56890
N    -0.67651   1.32673  -2.72771
C    -1.31493  -0.43621   0.23969
C    -2.50278  -0.82402  -0.68635
C    -1.77966  -0.51465   1.70822
C     0.02395  -1.21510   0.07164
C     0.23380  -1.99590  -1.21713
O     0.92858  -2.98766  -1.27964
H     3.92053  -1.60592   1.20808
H     3.74084  -1.03326  -0.48421
H     2.59372  -2.22033   0.14931
H     0.57781   1.31622   1.50175
H    -3.26157  -0.00402  -0.56353
H    -3.03319  -1.76338  -0.45957
H    -2.22790  -0.84093  -1.74990
H    -2.09049  -1.53286   2.05875
H    -2.65405   0.14166   1.84843
H    -0.97006  -0.18920   2.36676
H     0.26461  -1.88792   0.95096
H    -0.25127  -1.58413  -2.12393
28

C     3.20204  -1.36273   0.42552
C     2.32521  -0.24407   0.88537
O     2.59416   0.48151   1.83018
N     1.16660  -0.01168   0.07631
N     0.57297   1.21163   0.47778
C    -0.75199   1.13440  -0.09776
C    -1.62179   2.16552   0.48510
N    -2.36837   2.89583   0.98984
C    -0.67966   1.30889  -1.56891
N    -0.67743   1.32496  -2.72791
C    -1.32171  -0.45996   0.24304
C    -2.50605  -0.82242  -0.68756
C    -1.78136  -0.51640   1.70936
C     0.00623  -1.23258   0.07178
C     0.22953  -1.99917  -1.21595
O     0.93114  -2.98680  -1.28102
H     3.92034  -1.60562   1.20788
H     3.74062  -1.03335  -0.48464
H     2.59252  -2.21894   0.14960
H     0.58176   1.31945   1.50101
H    -3.25997  -0.00140  -0.56403
H    -3.03766  -1.76125  -0.46117
H    -2.22781  -0.84125  -1.74991
H    -2.09259  -1.53161   2.06249
H    -2.65328   0.14290   1.84746
H    -0.96943  -0.18955   2.36555
H     0.26666  -1.88613   0.95106
H    -0.25198  -1.58452  -2.12363
28

C     3.20160  -1.35994   0.42525
C     2.32931  -0.23781   0.88510
O     2.59416   0.48135   1.83552
N     1.17901   0.00501   0.07030
N     0.57242   1.20533   0.47836
C    -0.74160   1.15268  -0.10103
C    -1.61805   2.16959   0.48560
N    -2.36947   2.89491   0.99036
C    -0.67736   1.30933  -1.56891
N    -0.67835   1.32319  -2.72812
C    -1.32849  -0.48371   0.24639
C    -2.50931  -0.82081  -0.68877
C    -1.78307  -0.51816   1.71051
C    -0.01149  -1.25006   0.07191
C     0.22527  -2.00244  -1.21478
O     0.93371  -2.98594  -1.28239
H     3.92016  -1.60533   1.20767
H     3.74040  -1.03344  -0.48508
H     2.59133  -2.21755   0.14989
H     0.58571   1.32269   1.50027
H    -3.25837   0.00123  -0.56452
H    -3.04212  -1.75912  -0.46277
H    -2.22772  -0.84157  -1.74992
H    -2.09469  -1.53036   2.06623
H    -2.65252   0.14414   1.84649
H    -0.96880  -0.18990   2.36435
H     0.26871  -1.88434   0.95116
H    -0.25269  -1.58491  -2.12332
28

C     3.20116  -1.35716   0.42499
C     2.33341  -0.23155   0.88483
O     2.59417   0.48118   1.84087
N     1.19143   0.02170   0.06429
N     0.57187   1.19904   0.47895
C    -0.73120   1.17095  -0.10429
C    -1.61432   2.17366   0.48610
N    -2.37057   2.89400   0.99088
C    -0.67506   1.30976  -1.56892
N    -0.67927   1.32142  -2.72832
C    -1.33527  -0.50746   0.24974
C    -2.51258  -0.81921  -0.68998
C    -1.78477  -0.51991   1.71165
C    -0.02921  -1.26755   0.07205
C     0.22100  -2.00572  -1.21360
O     0.93627  -2.98508  -1.28377
H     3.91998  -1.60503   1.20747
H     3.74018  -1.03354  -0.48551
H     2.59013  -2.21616   0.15018
H     0.58966   1.32593   1.49953
H    -3.25677   0.00386  -0.56501
H    -3.04659  -1.75699  -0.46437
H    -2.22763  -0.84189  -1.74992
H    -2.09679  -1.52911   2.06997
H    -2.65175   0.14538   1.84552
H    -0.96818  -0.19025   2.36315
H     0.27075  -1.88255   0.95125
H    -0.25341  -1.58530  -2.12302
28

C     3.20071  -1.35438   0.42473
C     2.33751  -0.22529   0.88456
O     2.59417   0.48102   1.84622
N     1.20384   0.03839   0.05827
N     0.57132   1.19274   0.47953
C    -0.72080   1.18922  -0.10756
C    -1.61059   2.17773   0.48660
N    -2.37167   2.89308   0.99140
C    -0.67275   1.31019  -1.56892
N    -0.68019   1.31965  -2.72852
C    -1.34205  -0.53122   0.25309
C    -2.51585  -0.81761  -0.69119
C    -1.78648  -0.52166   1.71280
C    -0.04693  -1.28503   0.07218
C     0.21673  -2.00899  -1.21242
O     0.93884  -2.98422  -1.28514
H     3.91979  -1.60474   1.20726
H     3.73996  -1.03363  -0.48595
H     2.58894  -2.21477   0.15047
H     0.59362   1.32916   1.49879
H    -3.25518   0.00649  -0.56550
H    -3.05105  -1.75486  -0.46597
H    -2.22754  -0.84221  -1.74993
H    -2.09890  -1.52786   2.07371
H    -2.65098   0.14662   1.84454
H    -0.96755  -0.19059   2.36195
H     0.27280  -1.88076   0.95135
H    -0.25412  -1.58569  -2.12271
28

C     3.20027  -1.35160   0.42447
C     2.34161  -0.21903   0.88429
O     2.59418   0.48086   1.85156
N     1.21626   0.05508   0.05226
N     0.57076   1.18645   0.48012
C    -0.71041   1.20749  -0.11083
C    -1.60686   2.18180   0.48710
N    -2.37277   2.89216   0.99192
C    -0.67045   1.31063  -1.56893
N    -0.68112   1.31788  -2.72873
C    -1.34883  -0.55497   0.25644
C    -2.51912  -0.81601  -0.69240
C    -1.78819  -0.52342   1.71395
C    -0.06466  -1.30251   0.07232
C     0.21246  -2.01226  -1.21124
O     0.94140  -2.98336  -1.28652
H     3.91961  -1.60445   1.20705
H     3.73974  -1.03372  -0.48638
H     2.58774  -2.21338   0.15076
H     0.59757   1.33240   1.49806
H    -3.25358   0.00911  -0.56599
H    -3.05552  -1.75273  -0.46757
H    -2.22745  -0.84253  -1.74994
H    -2.10100  -1.52661   2.07744
H    -2.65022   0.14786   1.84357
H    -0.96692  -0.19094   2.36074
H     0.27485  -1.87898   0.95145
H    -0.25483  -1.58608  -2.12241
28

C     3.19983  -1.34882   0.42421
C     2.34571  -0.21277   0.88402
O     2.59418   0.48069   1.85691
N     1.22867   0.07177   0.04625
N     0.57021   1.18016   0.48070
C    -0.70001   1.22577  -0.11410
C    -1.60312   2.18588   0.48759
N    -2.37387   2.89124   0.99244
C    -0.66815   1.31106  -1.56893
N    -0.68204   1.31611  -2.72893
C    -1.35561  -0.57872   0.25979
C    -2.52238  -0.81441  -0.69361
C    -1.78989  -0.52517   1.71509
C    -0.08238  -1.31999   0.07245
C     0.20819  -2.01554  -1.21007
O     0.94396  -2.98250  -1.28789
H     3.91943  -1.60415   1.20685
H     3.73952  -1.03381  -0.48682
H     2.58655  -2.21199   0.15105
H     0.60152   1.33563   1.49732
H    -3.25198   0.01174  -0.56648
H    -3.05998  -1.75060  -0.46917
H    -2.22736  -0.84285  -1.74995
H    -2.10310  -1.52536   2.08118
H    -2.64945   0.14910   1.84260
H    -0.96629  -0.19129   2.35954
H     0.27689  -1.87719   0.95155
H    -0.25554  -1.58647  -2.12210
28

C     3.19939  -1.34604   0.42394
C     2.34981  -0.20651   0.88375
O     2.59419   0.48053   1.86226
N     1.24109   0.08846   0.04023
N     0.56966   1.17386   0.48129
C    -0.68961   1.24404  -0.11736
C    -1.59939   2.18995   0.48809
N    -2.37497   2.89032   0.99295
C    -0.66584   1.31150  -1.56894
N    -0.68296   1.31434  -2.72913
C    -1.36239  -0.60247   0.26313
C    -2.52565  -0.81281  -0.69482
C    -1.79160  -0.52692   1.71624
C    -0.10010  -1.33747   0.07259
C     0.20393  -2.01881  -1.20889
O     0.94653  -2.98164  -1.28927
H     3.91924  -1.60386   1.20664
H     3.73929  -1.03390  -0.48725
H     2.58535  -2.21061   0.15134
H     0.60547   1.33887   1.49658
H    -3.25038   0.01437  -0.56697
H    -3.06445  -1.74847  -0.47077
H    -2.22727  -0.84317  -1.74996
H    -2.10520  -1.52411   2.08492
H    -2.64869   0.15034   1.84163
H    -0.96567  -0.19164   2.35834
H     0.27894  -1.87540   0.95165
H    -0.25625  -1.58686  -2.12180
28

C     3.19895  -1.34326   0.42368
C     2.35391  -0.20025   0.88348
O     2.59419   0.48036   1.86761
N     1.25350   0.10515   0.03422
N     0.56911   1.16757   0.48188
C    -0.67921   1.26231  -0.12063
C    -1.59566   2.19402   0.48859
N    -2.37607   2.88940   0.99347
C    -0.66354   1.31193  -1.56894
N    -0.68388   1.31256  -2.72934
C    -1.36917  -0.62622   0.26648
C    -2.52892  -0.81121  -0.69603
C    -1.79330  -0.52867   1.71738
C    -0.11782  -1.35495   0.07272
C     0.19966  -2.02208  -1.20771
O     0.94909  -2.98078  -1.29064
H     3.91906  -1.60356   1.20644
H     3.73907  -1.03399  -0.48769
H     2.58416  -2.20922   0.15163
H     0.60942   1.34211   1.49584
H    -3.24878   0.01699  -0.56747
H    -3.06891  -1.74633  -0.47237
H    -2.22718  -0.84349  -1.74997
H    -2.10730  -1.52286   2.08866
H    -2.64792   0.15158   1.84066
H    -0.96504  -0.19198   2.35713
H     0.28099  -1.87361   0.95174
H    -0.25696  -1.58725  -2.12149
28

C     3.19851  -1.34047   0.42342
C     2.35801  -0.19399   0.88321
O     2.59420   0.48020   1.87295
N     1.26592   0.12184   0.02821
N     0.56855   1.16127   0.48246
C    -0.66882   1.28059  -0.12390
C    -1.59193   2.19809   0.48909
N    -2.37717   2.88848   0.99399
C    -0.66124   1.31237  -1.56895
N    -0.68480   1.31079  -2.72954
C    -1.37595  -0.64997   0.26983
C    -2.53218  -0.80960  -0.69724
C    -1.79501  -0.53043   1.71853
C    -0.13554  -1.37243   0.07286
C     0.19539  -2.02535  -1.20654
O     0.95165  -2.97992  -1.29202
H     3.91888  -1.60327   1.20623
H     3.73885  -1.03408  -0.48812
H     2.58296  -2.20783   0.15192
H     0.61338   1.34534   1.49510
H    -3.24718   0.01962  -0.56796
H    -3.07337  -1.74420  -0.47397
H    -2.22709  -0.84381  -1.74998
H    -2.10941  -1.52160   2.09240
H    -2.64715   0.15282   1.83969
H    -0.96441  -0.19233   2.35593
H     0.28304  -1.87182   0.95184
H    -0.25767  -1.58764  -2.12119
28

C     3.19807  -1.33769   0.42316
C     2.36211  -0.18773   0.88294
O     2.59420   0.48004   1.87830
N     1.27833   0.13853   0.02219
N     0.56800   1.15498   0.48305
C    -0.65842   1.29886  -0.12716
C    -1.58819   2.20216   0.48959
N    -2.37827   2.88756   0.99451
C    -0.65893   1.31280  -1.56895
N    -0.68572   1.30902  -2.72974
C    -1.38273  -0.67372   0.27318
C    -2.53545  -0.80800  -0.69845
C    -1.79671  -0.53218   1.71968
C    -0.15326  -1.38991   0.07299
C     0.19112  -2.02863  -1.20536
O     0.95422  -2.97905  -1.29339
H     3.91869  -1.60298   1.20602
H     3.73863  -1.03418  -0.48856
H     2.58177  -2.20644   0.15221
H     0.61733   1.34858   1.49437
H    -3.24558   0.02225  -0.56845
H    -3.07784  -1.74207  -0.47557
H    -2.22700  -0.84413  -1.74998
H    -2.11151  -1.52035   2.09614
H    -2.64639   0.15406   1.83871
H    -0.96378  -0.19268   2.35473
H     0.28508  -1.87003   0.95194
H    -0.25838  -1.58802  -2.12088
28

C     3.19763  -1.33491   0.42289
C     2.36621  -0.18147   0.88266
O     2.59421   0.47987   1.88365
N     1.29075   0.15522   0.01618
N     0.56745   1.14869   0.48363
C    -0.64802   1.31713  -0.13043
C    -1.58446   2.20624   0.49009
N    -2.37937   2.88664   0.99503
C    -0.65663   1.31323  -1.56896
N    -0.68665   1.30725  -2.72995
C    -1.38951  -0.69747   0.27653
C    -2.53872  -0.80640  -0.69966
C    -1.79842  -0.53393   1.72082
C    -0.17098  -1.40739   0.07313
C     0.18686  -2.03190  -1.20418
O     0.95678  -2.97819  -1.29477
H     3.91851  -1.60268   1.20582
H     3.73841  -1.03427  -0.48899
H     2.58057  -2.20505   0.15250
H     0.62128   1.35182   1.49363
H    -3.24398   0.02488  -0.56894
H    -3.08230  -1.73994  -0.47717
H    -2.22691  -0.84445  -1.74999
H    -2.11361  -1.51910   2.09987
H    -2.64562   0.15530   1.83774
H    -0.96316  -0.19303   2.35352
H     0.28713  -1.86825   0.95204
H    -0.25910  -1.58841  -2.12058
28

C     3.19718  -1.33213   0.42263
C     2.37031  -0.17521   0.88239
O     2.59421   0.47971   1.88899
N     1.30316   0.17191   0.01017
N     0.56689   1.14239   0.48422
C    -0.63763   1.33541  -0.13370
C    -1.58073   2.21031   0.49059
N    -2.38047   2.88572   0.99554
C    -0.65432   1.31367  -1.56896
N    -0.68757   1.30548  -2.73015
C    -1.39629  -0.72123   0.27988
C    -2.54199  -0.80480  -0.70087
C    -1.80013  -0.53569   1.72197
C    -0.18870  -1.42487   0.07326
C     0.18259  -2.03517  -1.20301
O     0.95934  -2.97733  -1.29614
H     3.91833  -1.60239   1.20561
H     3.73819  -1.03436  -0.48943
H     2.57938  -2.20366   0.15279
H     0.62523   1.35505   1.49289
H    -3.24238   0.02750  -0.56943
H    -3.08677  -1.73781  -0.47877
H    -2.22682  -0.84477  -1.75000
H    -2.11571  -1.51785   2.10361
H    -2.64486   0.15653   1.83677
H    -0.96253  -0.19338   2.35232
H     0.28918  -1.86646   0.95214
H    -0.25981  -1.58880  -2.12028
28

C     3.19674  -1.32935   0.42237
C     2.37441  -0.16895   0.88212
O     2.59422   0.47954   1.89434
N     1.31558   0.18860   0.00415
N     0.56634   1.13610   0.48480
C    -0.62723   1.35368  -0.13697
C    -1.57700   2.21438   0.49109
N    -2.38157   2.88480   0.99606
C    -0.65202   1.31410  -1.56897
N    -0.68849   1.30371  -2.73035
C    -1.40307  -0.74498   0.28323
C    -2.54525  -0.80320  -0.70208
C    -1.80183  -0.53744   1.72312
C    -0.20642  -1.44235   0.07340
C     0.17832  -2.03844  -1.20183
O     0.96191  -2.97647  -1.29752
H     3.91814  -1.60209   1.20540
H     3.73796  -1.03445  -0.48986
H     2.57818  -2.20228   0.15308
H     0.62918   1.35829   1.49215
H    -3.24078   0.03013  -0.56992
H    -3.09123  -1.73568  -0.48037
H    -2.22673  -0.84510  -1.75001
H    -2.11781  -1.51660   2.10735
H    -2.64409   0.15777   1.83580
H    -0.96190  -0.19372   2.35112
H     0.29122  -1.86467   0.95223
H    -0.26052  -1.58919  -2.11997
28

C     3.19630  -1.32657   0.42211
C     2.37851  -0.16269   0.88185
O     2.59422   0.47938   1.89969
N     1.32799   0.20529  -0.00186
N     0.56579   1.12980   0.48539
C    -0.61683   1.37195  -0.14023
C    -1.57327   2.21845   0.49159
N    -2.38267   2.88388   0.99658
C    -0.64972   1.31454  -1.56897
N    -0.68941   1.30194  -2.73056
C    -1.40985  -0.76873   0.28658
C    -2.54852  -0.80160  -0.70329
C    -1.80354  -0.53919   1.72426
C    -0.22415  -1.45983   0.07353
C     0.17405  -2.04172  -1.20065
O     0.96447  -2.97561  -1.29889
H     3.91796  -1.60180   1.20520
H     3.73774  -1.03454  -0.49030
H     2.57699  -2.20089   0.15337
H     0.63314   1.36152   1.49142
H    -3.23918   0.03276  -0.57041
H    -3.09570  -1.73355  -0.48197
H    -2.22664  -0.84542  -1.75002
H    -2.11991  -1.51535   2.11109
H    -2.64333   0.15901   1.83483
H    -0.96127  -0.19407   2.34991
H     0.29327  -1.86288   0.95233
H    -0.26123  -1.58958  -2.11967
28

C     3.19586  -1.32379   0.42185
C     2.38261  -0.15643   0.88158
O     2.59423   0.47922   1.90503
N     1.34041   0.22198  -0.00787
N     0.56524   1.12351   0.48598
C    -0.60644   1.39022  -0.14350
C    -1.56953   2.22252   0.49209
N    -2.38377   2.88297   0.99710
C    -0.64741   1.31497  -1.56898
N    -0.69033   1.30017  -2.73076
C    -1.41663  -0.79248   0.28993
C    -2.55179  -0.79999  -0.70450
C    -1.80524  -0.54095   1.72541
C    -0.24187  -1.47731   0.07367
C     0.16978  -2.04499  -1.19948
O     0.96703  -2.97475  -1.30027
H     3.91777  -1.60151   1.20499
H     3.73752  -1.03463  -0.49073
H     2.57579  -2.19950   0.15366
H     0.63709   1.36476   1.49068
H    -3.23758   0.03538  -0.57090
H    -3.10016  -1.73142  -0.48357
H    -2.22655  -0.84574  -1.75003
H    -2.12202  -1.51410   2.11483
H    -2.64256   0.16025   1.83386
H    -0.96064  -0.19442   2.34871
H     0.29532  -1.86109   0.95243
H    -0.26194  -1.58997  -2.11936
28

C     3.19542  -1.32100   0.42158
C     2.38671  -0.15017   0.88131
O     2.59423   0.47905   1.91038
N     1.35282   0.23867  -0.01389
N     0.56468   1.11722   0.48656
C    -0.59604   1.40850  -0.14677
C    -1.56580   2.22659   0.49259
N    -2.38487   2.88205   0.99762
C    -0.64511   1.31541  -1.56898
N    -0.69125   1.29839  -2.73096
C    -1.42341  -0.81623   0.29328
C    -2.55506  -0.79839  -0.70571
C    -1.80695  -0.54270   1.72655
C    -0.25959  -1.49479   0.07380
C     0.16552  -2.04826  -1.19830
O     0.96960  -2.97389  -1.30164
H     3.91759  -1.60121   1.20479
H     3.73730  -1.03472  -0.49117
H     2.57460  -2.19811   0.15395
H     0.64104   1.36800   1.48994
H    -3.23598   0.03801  -0.57140
H    -3.10463  -1.72929  -0.48517
H    -2.22646  -0.84606  -1.75004
H    -2.12412  -1.51285   2.11856
H    -2.64179   0.16149   1.83288
H    -0.96002  -0.19477   2.34751
H     0.29736  -1.85930   0.95253
H    -0.26265  -1.59036  -2.11906
28

C     3.19498  -1.31822   0.42132
C     2.39081  -0.14391   0.88104
O     2.59424   0.47889   1.91573
N     1.36524   0.25536  -0.01990
N     0.56413   1.11092   0.48715
C    -0.58564   1.42677  -0.15003
C    -1.56207   2.23067   0.49309
N    -2.38597   2.88113   0.99814
C    -0.64281   1.31584  -1.56899
N    -0.69217   1.29662  -2.73117
C    -1.43019  -0.83998   0.29663
C    -2.55832  -0.79679  -0.70692
C    -1.80866  -0.54445   1.72770
C    -0.27731  -1.51227   0.07394
C     0.16125  -2.05153  -1.19712
O     0.97216  -2.97303  -1.30302
H     3.91741  -1.60092   1.20458
H     3.73708  -1.03482  -0.49160
H     2.57340  -2.19672   0.15424
H     0.64499   1.37123   1.48920
H    -3.23438   0.04064  -0.57189
H    -3.10909  -1.72716  -0.48677
H    -2.22637  -0.84638  -1.75005
H    -2.12622  -1.51160   2.12230
H    -2.64103   0.16273   1.83191
H    -0.95939  -0.19512   2.34630
H     0.29941  -1.85752   0.95263
H    -0.26336  -1.59075  -2.11875
28

C     3.19454  -1.31544   0.42106
C     2.39491  -0.13765   0.88077
O     2.59424   0.47872   1.92107
N     1.37765   0.27205  -0.02591
N     0.56358   1.10463   0.48773
C    -0.57525   1.44504  -0.15330
C    -1.55834   2.23474   0.49358
N    -2.38707   2.88021   0.99865
C    -0.64050   1.31628  -1.56899
N    -0.69310   1.29485  -2.73137
C    -1.43697  -0.86373   0.29998
C    -2.56159  -0.79519  -0.70813
C    -1.81036  -0.54621   1.72885
C    -0.29503  -1.52975   0.07407
C     0.15698  -2.05481  -1.19594
O     0.97472  -2.97217  -1.30439
H     3.91722  -1.60062   1.20437
H     3.73686  -1.03491  -0.49204
H     2.57221  -2.19533   0.15453
H     0.64894   1.37447   1.48846
H    -3.23278   0.04327  -0.57238
H    -3.11355  -1.72503  -0.48837
H    -2.22628  -0.84670  -1.75005
H    -2.12832  -1.51035   2.12604
H    -2.64026   0.16397   1.83094
H    -0.95876  -0.19546   2.34510
H     0.30146  -1.85573   0.95272
H    -0.26408  -1.59114  -2.11845
28

C     3.19410  -1.31266   0.42080
C     2.39901  -0.13139   0.88050
O     2.59425   0.47856   1.92642
N     1.39007   0.28874  -0.03193
N     0.56303   1.09833   0.48832
C    -0.56485   1.46332  -0.15657
C    -1.55460   2.23881   0.49408
N    -2.38817   2.87929   0.99917
C    -0.63820   1.31671  -1.56900
N    -0.69402   1.29308  -2.73157
C    -1.44375  -0.88749   0.30333
C    -2.56486  -0.79359  -0.70934
C    -1.81207  -0.54796   1.72999
C    -0.31275  -1.54723   0.07421
C     0.15271  -2.05808  -1.19477
O     0.97729  -2.97131  -1.30577
H     3.91704  -1.60033   1.20417
H     3.73663  -1.03500  -0.49247
H     2.57101  -2.19394   0.15482
H     0.65290   1.37771   1.48773
H    -3.23118   0.04589  -0.57287
H    -3.11802  -1.72290  -0.48997
H    -2.22619  -0.84702  -1.75006
H    -2.13042  -1.50910   2.12978
H    -2.63950   0.16521   1.82997
H    -0.95813  -0.19581   2.34390
H     0.30350  -1.85394   0.95282
H    -0.26479  -1.59153  -2.11814
