8

C -0.700862079 -1.745710645 2.298202615
C 1.639151029 -1.380336993 0.664233064
H 1.216663769 -1.685803246 -1.332044985
H 2.398274971 0.528777684 0.853555805
H 3.135613733 -2.699605407 1.189870703
H -2.197412938 -0.426475905 1.772616981
H -1.460118811 -3.654776113 2.109188051
H -0.278245448 -1.439881318 4.294419890

