16

N 5.046858151 1.323646192 -0.915720783
C 2.730016959 0.835265353 -0.541034013
C 1.796188121 -1.714596946 -0.308319759
C -0.870174264 -2.259238692 -0.065322787
C -2.591857116 -0.070868074 -0.610045961
C -1.431193813 2.303466258 0.500199847
O 1.006373742 2.791490505 -0.471226925
H 5.297501862 3.219358251 -1.091809016
H 3.138132606 -3.232723471 -0.517815893
H 0.187751906 -2.231215811 2.081372095
H -1.677320322 -2.659539755 2.612128398
H -1.488517199 -4.136389691 -0.612280127
H -2.693449379 0.094977730 -2.668375926
H -4.492742924 -0.375146616 0.126420051
H -1.352299788 2.132689838 2.569569970
H -2.566723778 3.961052057 0.051885152

