16

C -1.919491635 -3.950529779 0.175961111
C -1.166811509 0.463937741 -1.476889393
C -1.202655626 3.344045064 -1.290559884
C 1.421260467 3.127553220 0.075939173
C 0.891008060 0.313594759 0.092158409
N 1.487424938 -1.618002254 1.524663087
O 4.062766604 -1.645576590 2.048482772
H -2.645556783 -3.644525539 2.058212821
H -0.528407959 -5.431171129 -0.006813445
H -3.306544961 -3.891230797 -1.323337524
H -1.637279482 -0.688014813 -3.086759192
H -1.200541438 4.362015167 -3.084355120
H -2.668823205 4.128440993 -0.071149304
H 1.628295139 4.023930597 1.920803918
H 2.975951359 3.683410358 -1.152568303
H 4.174778891 -2.614326055 3.579532151

