10

O -3.815787771 -0.761306688 -0.993111814
C -1.969339190 -1.430885466 0.559212630
C 1.279293696 1.322484615 -0.088223451
C 3.570572033 -0.086637915 0.205343537
N 5.338166122 -1.317695331 0.499063366
H -4.955773994 0.364627040 -0.132431119
H -0.551732868 0.213234655 1.432675093
H -0.823466508 -2.885762479 -0.361614987
H 1.319739731 3.115991082 0.922201221
H 0.739751603 1.580418757 -2.050801882

