10

O 1.812301494 -0.806822707 0.883191321
C 4.070271500 -1.236100793 0.046925528
C 0.132733777 0.458287233 -0.799112209
C -2.545141953 -0.158764225 -0.440004700
N -1.493718595 2.289786758 0.331377460
H 4.979172942 -2.200864032 1.678583415
H 1.045460403 0.874316374 -2.583553206
H -3.839758607 -0.099490981 -2.023064179
H -2.968005949 -1.542087307 1.010699231
H -1.222670018 2.375469775 2.224920529

