11

N -2.054397067 1.980030183 0.716775103
C -1.679026651 -0.500070193 0.173216530
O -3.879973074 -1.779137103 0.127257899
C 0.598523639 -1.596992676 -0.209696918
C 2.844885227 -0.148202074 -0.207188325
C 4.721198359 1.136816585 -0.203316805
H -3.773318141 2.688375596 0.336845382
H -0.567356802 3.134576557 0.462061054
H 0.713605806 -3.618537950 -0.498225083
H -3.550662748 -3.515115450 -0.282630425
H 6.402125923 2.238879123 -0.194204565

