25

C     2.23510   0.61540   1.41894
C     2.08725   0.04732   0.03139
O     2.96191   0.16575  -0.82980
C     0.84319  -0.68162  -0.28567
C     0.86766  -1.50795  -1.45004
N     0.84452  -2.11842  -2.44347
N    -0.06533  -1.04899   0.71683
C    -0.99617  -0.17168   1.04890
C    -1.80392  -0.51883   2.21971
N    -2.53216  -0.63649   3.11856
C    -1.29805   1.31190   0.18447
C    -2.75508   1.24552  -0.30028
C    -0.24899   1.44410  -0.80885
C    -0.44462   1.26658  -2.28055
H     2.30708  -0.19764   2.16106
H     1.35821   1.22136   1.68160
H     3.14148   1.23400   1.46283
H    -1.17407   2.06399   1.02035
H    -3.40288   1.04144   0.56010
H    -2.86550   0.43488  -1.02877
H    -3.16914   2.17131  -0.79262
H     0.62447   2.06135  -0.52632
H    -0.86688   2.15444  -2.81269
H    -1.11595   0.42626  -2.49602
H     0.53482   1.06265  -2.75873
25

C     2.23539   0.61528   1.41892
C     2.09037   0.04460   0.03258
O     2.96211   0.16606  -0.83013
C     0.85125  -0.69370  -0.28200
C     0.86920  -1.51215  -1.45037
N     0.84444  -2.11960  -2.44542
N    -0.06322  -1.04121   0.70966
C    -0.99357  -0.19612   1.06320
C    -1.80464  -0.52617   2.22638
N    -2.53678  -0.63533   3.12316
C    -1.30242   1.33658   0.17234
C    -2.75676   1.24782  -0.30169
C    -0.25540   1.45991  -0.81267
C    -0.44411   1.26732  -2.28272
H     2.30698  -0.19724   2.16153
H     1.35790   1.22121   1.68064
H     3.14130   1.23432   1.46289
H    -1.17444   2.06430   1.02029
H    -3.40118   1.04042   0.56077
H    -2.86409   0.43475  -1.02856
H    -3.17443   2.16958  -0.79309
H     0.62430   2.06215  -0.52663
H    -0.86556   2.15289  -2.81683
H    -1.11580   0.42607  -2.49507
H     0.53536   1.06084  -2.75745
25

C     2.23568   0.61516   1.41890
C     2.09349   0.04188   0.03376
O     2.96231   0.16638  -0.83045
C     0.85931  -0.70579  -0.27834
C     0.87075  -1.51635  -1.45070
N     0.84435  -2.12077  -2.44737
N    -0.06110  -1.03344   0.70249
C    -0.99097  -0.22056   1.07749
C    -1.80537  -0.53351   2.23305
N    -2.54140  -0.63417   3.12776
C    -1.30679   1.36125   0.16021
C    -2.75844   1.25011  -0.30311
C    -0.26181   1.47573  -0.81648
C    -0.44360   1.26807  -2.28490
H     2.30688  -0.19684   2.16200
H     1.35760   1.22106   1.67968
H     3.14112   1.23465   1.46294
H    -1.17480   2.06461   1.02022
H    -3.39948   1.03940   0.56144
H    -2.86269   0.43462  -1.02835
H    -3.17971   2.16785  -0.79356
H     0.62413   2.06295  -0.52695
H    -0.86425   2.15134  -2.82097
H    -1.11565   0.42589  -2.49412
H     0.53590   1.05903  -2.75617
25

C     2.23597   0.61504   1.41888
C     2.09662   0.03916   0.03494
O     2.96250   0.16669  -0.83077
C     0.86737  -0.71788  -0.27467
C     0.87230  -1.52055  -1.45103
N     0.84426  -2.12194  -2.44932
N    -0.05899  -1.02567   0.69532
C    -0.98836  -0.24500   1.09179
C    -1.80609  -0.54084   2.23971
N    -2.54601  -0.63301   3.13235
C    -1.31116   1.38592   0.14808
C    -2.76013   1.25240  -0.30452
C    -0.26822   1.49155  -0.82030
C    -0.44309   1.26882  -2.28707
H     2.30678  -0.19643   2.16247
H     1.35730   1.22091   1.67872
H     3.14094   1.23497   1.46299
H    -1.17517   2.06492   1.02016
H    -3.39779   1.03838   0.56212
H    -2.86128   0.43449  -1.02813
H    -3.18500   2.16613  -0.79403
H     0.62395   2.06376  -0.52726
H    -0.86294   2.14980  -2.82511
H    -1.11550   0.42571  -2.49318
H     0.53645   1.05722  -2.75490
25

C     2.23626   0.61492   1.41886
C     2.09974   0.03645   0.03612
O     2.96270   0.16701  -0.83110
C     0.87543  -0.72997  -0.27100
C     0.87385  -1.52475  -1.45136
N     0.84417  -2.12312  -2.45127
N    -0.05687  -1.01790   0.68815
C    -0.98576  -0.26943   1.10609
C    -1.80681  -0.54818   2.24638
N    -2.55063  -0.63185   3.13695
C    -1.31553   1.41059   0.13594
C    -2.76181   1.25470  -0.30593
C    -0.27463   1.50737  -0.82412
C    -0.44258   1.26957  -2.28924
H     2.30667  -0.19603   2.16294
H     1.35700   1.22076   1.67776
H     3.14076   1.23530   1.46305
H    -1.17553   2.06523   1.02009
H    -3.39609   1.03736   0.56279
H    -2.85988   0.43436  -1.02792
H    -3.19029   2.16440  -0.79450
H     0.62378   2.06456  -0.52757
H    -0.86163   2.14825  -2.82925
H    -1.11535   0.42553  -2.49223
H     0.53699   1.05541  -2.75362
25

C     2.23655   0.61480   1.41884
C     2.10286   0.03373   0.03730
O     2.96290   0.16733  -0.83142
C     0.88349  -0.74205  -0.26734
C     0.87539  -1.52895  -1.45169
N     0.84408  -2.12429  -2.45322
N    -0.05476  -1.01012   0.68098
C    -0.98316  -0.29387   1.12038
C    -1.80753  -0.55552   2.25305
N    -2.55525  -0.63068   3.14154
C    -1.31990   1.43526   0.12381
C    -2.76349   1.25699  -0.30734
C    -0.28104   1.52318  -0.82794
C    -0.44206   1.27031  -2.29141
H     2.30657  -0.19563   2.16341
H     1.35670   1.22061   1.67680
H     3.14058   1.23562   1.46310
H    -1.17590   2.06555   1.02002
H    -3.39439   1.03634   0.56347
H    -2.85847   0.43423  -1.02770
H    -3.19557   2.16267  -0.79496
H     0.62361   2.06536  -0.52789
H    -0.86031   2.14671  -2.83339
H    -1.11520   0.42535  -2.49128
H     0.53754   1.05360  -2.75234
25

C     2.23684   0.61468   1.41882
C     2.10599   0.03101   0.03848
O     2.96309   0.16764  -0.83174
C     0.89155  -0.75414  -0.26367
C     0.87694  -1.53315  -1.45202
N     0.84399  -2.12546  -2.45517
N    -0.05264  -1.00235   0.67381
C    -0.98055  -0.31831   1.13468
C    -1.80826  -0.56286   2.25972
N    -2.55987  -0.62952   3.14614
C    -1.32427   1.45993   0.11168
C    -2.76518   1.25928  -0.30875
C    -0.28745   1.53900  -0.83175
C    -0.44155   1.27106  -2.29359
H     2.30647  -0.19523   2.16388
H     1.35640   1.22046   1.67584
H     3.14040   1.23595   1.46315
H    -1.17626   2.06586   1.01996
H    -3.39269   1.03532   0.56414
H    -2.85707   0.43410  -1.02749
H    -3.20086   2.16095  -0.79543
H     0.62343   2.06616  -0.52820
H    -0.85900   2.14516  -2.83753
H    -1.11505   0.42517  -2.49034
H     0.53808   1.05179  -2.75106
25

C     2.23713   0.61456   1.41880
C     2.10911   0.02829   0.03966
O     2.96329   0.16796  -0.83206
C     0.89961  -0.76623  -0.26001
C     0.87849  -1.53735  -1.45235
N     0.84390  -2.12663  -2.45712
N    -0.05053  -0.99458   0.66664
C    -0.97795  -0.34275   1.14898
C    -1.80898  -0.57020   2.26639
N    -2.56448  -0.62836   3.15073
C    -1.32865   1.48460   0.09955
C    -2.76686   1.26157  -0.31016
C    -0.29386   1.55482  -0.83557
C    -0.44104   1.27181  -2.29576
H     2.30636  -0.19483   2.16435
H     1.35610   1.22031   1.67488
H     3.14022   1.23627   1.46321
H    -1.17663   2.06617   1.01989
H    -3.39099   1.03431   0.56481
H    -2.85566   0.43397  -1.02728
H    -3.20615   2.15922  -0.79590
H     0.62326   2.06696  -0.52851
H    -0.85769   2.14362  -2.84167
H    -1.11490   0.42499  -2.48939
H     0.53862   1.04998  -2.74978
25

C     2.23742   0.61444   1.41878
C     2.11223   0.02557   0.04084
O     2.96349   0.16827  -0.83239
C     0.90767  -0.77832  -0.25634
C     0.88003  -1.54155  -1.45268
N     0.84381  -2.12781  -2.45907
N    -0.04841  -0.98681   0.65947
C    -0.97535  -0.36719   1.16328
C    -1.80970  -0.57754   2.27306
N    -2.56910  -0.62720   3.15533
C    -1.33302   1.50927   0.08742
C    -2.76854   1.26387  -0.31157
C    -0.30027   1.57064  -0.83939
C    -0.44053   1.27255  -2.29793
H     2.30626  -0.19442   2.16482
H     1.35580   1.22016   1.67392
H     3.14003   1.23660   1.46326
H    -1.17699   2.06648   1.01983
H    -3.38930   1.03329   0.56549
H    -2.85426   0.43384  -1.02706
H    -3.21143   2.15749  -0.79637
H     0.62309   2.06777  -0.52882
H    -0.85638   2.14207  -2.84581
H    -1.11475   0.42481  -2.48844
H     0.53917   1.04816  -2.74850
25

C     2.23771   0.61432   1.41876
C     2.11535   0.02285   0.04202
O     2.96368   0.16859  -0.83271
C     0.91573  -0.79040  -0.25267
C     0.88158  -1.54576  -1.45301
N     0.84372  -2.12898  -2.46102
N    -0.04630  -0.97903   0.65231
C    -0.97274  -0.39162   1.17757
C    -1.81042  -0.58488   2.27973
N    -2.57372  -0.62604   3.15992
C    -1.33739   1.53394   0.07529
C    -2.77023   1.26616  -0.31299
C    -0.30668   1.58645  -0.84321
C    -0.44002   1.27330  -2.30011
H     2.30616  -0.19402   2.16528
H     1.35550   1.22002   1.67296
H     3.13985   1.23692   1.46331
H    -1.17736   2.06679   1.01976
H    -3.38760   1.03227   0.56616
H    -2.85285   0.43371  -1.02685
H    -3.21672   2.15576  -0.79684
H     0.62291   2.06857  -0.52914
H    -0.85506   2.14052  -2.84995
H    -1.11459   0.42463  -2.48750
H     0.53971   1.04635  -2.74723
25

C     2.23800   0.61420   1.41874
C     2.11848   0.02013   0.04320
O     2.96388   0.16891  -0.83303
C     0.92378  -0.80249  -0.24901
C     0.88313  -1.54996  -1.45334
N     0.84363  -2.13015  -2.46298
N    -0.04418  -0.97126   0.64514
C    -0.97014  -0.41606   1.19187
C    -1.81114  -0.59222   2.28640
N    -2.57833  -0.62488   3.16452
C    -1.34176   1.55861   0.06316
C    -2.77191   1.26845  -0.31440
C    -0.31309   1.60227  -0.84702
C    -0.43951   1.27405  -2.30228
H     2.30606  -0.19362   2.16575
H     1.35520   1.21987   1.67200
H     3.13967   1.23725   1.46337
H    -1.17772   2.06710   1.01969
H    -3.38590   1.03125   0.56683
H    -2.85145   0.43358  -1.02664
H    -3.22201   2.15404  -0.79731
H     0.62274   2.06937  -0.52945
H    -0.85375   2.13898  -2.85409
H    -1.11444   0.42445  -2.48655
H     0.54026   1.04454  -2.74595
25

C     2.23829   0.61408   1.41872
C     2.12160   0.01741   0.04439
O     2.96407   0.16922  -0.83336
C     0.93184  -0.81458  -0.24534
C     0.88467  -1.55416  -1.45367
N     0.84355  -2.13133  -2.46493
N    -0.04207  -0.96349   0.63797
C    -0.96754  -0.44050   1.20617
C    -1.81187  -0.59956   2.29306
N    -2.58295  -0.62372   3.16911
C    -1.34613   1.58328   0.05103
C    -2.77359   1.27075  -0.31581
C    -0.31950   1.61809  -0.85084
C    -0.43899   1.27479  -2.30445
H     2.30595  -0.19322   2.16622
H     1.35490   1.21972   1.67104
H     3.13949   1.23757   1.46342
H    -1.17809   2.06742   1.01963
H    -3.38420   1.03023   0.56751
H    -2.85004   0.43344  -1.02642
H    -3.22729   2.15231  -0.79778
H     0.62257   2.07017  -0.52976
H    -0.85244   2.13743  -2.85823
H    -1.11429   0.42427  -2.48561
H     0.54080   1.04273  -2.74467
25

C     2.23858   0.61396   1.41870
C     2.12472   0.01469   0.04557
O     2.96427   0.16954  -0.83368
C     0.93990  -0.82667  -0.24168
C     0.88622  -1.55836  -1.45400
N     0.84346  -2.13250  -2.46688
N    -0.03995  -0.95572   0.63080
C    -0.96493  -0.46494   1.22046
C    -1.81259  -0.60690   2.29973
N    -2.58757  -0.62256   3.17371
C    -1.35050   1.60795   0.03889
C    -2.77527   1.27304  -0.31722
C    -0.32591   1.63391  -0.85466
C    -0.43848   1.27554  -2.30662
H     2.30585  -0.19281   2.16669
H     1.35460   1.21957   1.67008
H     3.13931   1.23790   1.46347
H    -1.17845   2.06773   1.01956
H    -3.38250   1.02921   0.56818
H    -2.84864   0.43331  -1.02621
H    -3.23258   2.15058  -0.79825
H     0.62239   2.07097  -0.53008
H    -0.85113   2.13589  -2.86237
H    -1.11414   0.42409  -2.48466
H     0.54134   1.04092  -2.74339
25

C     2.23887   0.61384   1.41868
C     2.12784   0.01197   0.04675
O     2.96447   0.16986  -0.83400
C     0.94796  -0.83875  -0.23801
C     0.88777  -1.56256  -1.45433
N     0.84337  -2.13367  -2.46883
N    -0.03784  -0.94794   0.62363
C    -0.96233  -0.48938   1.23476
C    -1.81331  -0.61424   2.30640
N    -2.59219  -0.62140   3.17831
C    -1.35487   1.63262   0.02676
C    -2.77696   1.27533  -0.31863
C    -0.33232   1.64972  -0.85847
C    -0.43797   1.27629  -2.30880
H     2.30575  -0.19241   2.16716
H     1.35430   1.21942   1.66911
H     3.13913   1.23822   1.46353
H    -1.17882   2.06804   1.01950
H    -3.38080   1.02819   0.56886
H    -2.84723   0.43318  -1.02599
H    -3.23787   2.14886  -0.79872
H     0.62222   2.07177  -0.53039
H    -0.84981   2.13434  -2.86651
H    -1.11399   0.42391  -2.48371
H     0.54189   1.03911  -2.74211
25

C     2.23916   0.61372   1.41866
C     2.13097   0.00926   0.04793
O     2.96466   0.17017  -0.83433
C     0.95602  -0.85084  -0.23434
C     0.88932  -1.56676  -1.45466
N     0.84328  -2.13484  -2.47078
N    -0.03572  -0.94017   0.61646
C    -0.95973  -0.51382   1.24906
C    -1.81403  -0.62157   2.31307
N    -2.59680  -0.62024   3.18290
C    -1.35924   1.65729   0.01463
C    -2.77864   1.27762  -0.32004
C    -0.33873   1.66554  -0.86229
C    -0.43746   1.27704  -2.31097
H     2.30565  -0.19201   2.16763
H     1.35400   1.21927   1.66815
H     3.13895   1.23855   1.46358
H    -1.17919   2.06835   1.01943
H    -3.37911   1.02717   0.56953
H    -2.84582   0.43305  -1.02578
H    -3.24315   2.14713  -0.79919
H     0.62205   2.07258  -0.53070
H    -0.84850   2.13279  -2.87065
H    -1.11384   0.42373  -2.48277
H     0.54243   1.03730  -2.74083
25

C     2.23945   0.61360   1.41864
C     2.13409   0.00654   0.04911
O     2.96486   0.17049  -0.83465
C     0.96408  -0.86293  -0.23068
C     0.89086  -1.57096  -1.45499
N     0.84319  -2.13602  -2.47273
N    -0.03361  -0.93240   0.60929
C    -0.95712  -0.53825   1.26335
C    -1.81476  -0.62891   2.31974
N    -2.60142  -0.61908   3.18750
C    -1.36361   1.68196   0.00250
C    -2.78032   1.27992  -0.32146
C    -0.34514   1.68136  -0.86611
C    -0.43695   1.27778  -2.31314
H     2.30554  -0.19161   2.16810
H     1.35370   1.21912   1.66719
H     3.13877   1.23888   1.46363
H    -1.17955   2.06866   1.01937
H    -3.37741   1.02615   0.57020
H    -2.84442   0.43292  -1.02557
H    -3.24844   2.14540  -0.79965
H     0.62187   2.07338  -0.53102
H    -0.84719   2.13125  -2.87479
H    -1.11369   0.42355  -2.48182
H     0.54298   1.03549  -2.73956
25

C     2.23974   0.61348   1.41861
C     2.13721   0.00382   0.05029
O     2.96506   0.17080  -0.83497
C     0.97214  -0.87502  -0.22701
C     0.89241  -1.57516  -1.45532
N     0.84310  -2.13719  -2.47468
N    -0.03149  -0.92463   0.60212
C    -0.95452  -0.56269   1.27765
C    -1.81548  -0.63625   2.32641
N    -2.60604  -0.61792   3.19209
C    -1.36798   1.70663  -0.00963
C    -2.78201   1.28221  -0.32287
C    -0.35155   1.69718  -0.86993
C    -0.43644   1.27853  -2.31531
H     2.30544  -0.19120   2.16857
H     1.35340   1.21897   1.66623
H     3.13859   1.23920   1.46369
H    -1.17992   2.06897   1.01930
H    -3.37571   1.02513   0.57088
H    -2.84301   0.43279  -1.02535
H    -3.25373   2.14368  -0.80012
H     0.62170   2.07418  -0.53133
H    -0.84588   2.12970  -2.87893
H    -1.11354   0.42337  -2.48087
H     0.54352   1.03368  -2.73828
25

C     2.24003   0.61336   1.41859
C     2.14034   0.00110   0.05147
O     2.96525   0.17112  -0.83530
C     0.98020  -0.88710  -0.22335
C     0.89396  -1.57936  -1.45565
N     0.84301  -2.13836  -2.47663
N    -0.02938  -0.91685   0.59495
C    -0.95192  -0.58713   1.29195
C    -1.81620  -0.64359   2.33308
N    -2.61065  -0.61676   3.19669
C    -1.37235   1.73131  -0.02176
C    -2.78369   1.28450  -0.32428
C    -0.35796   1.71300  -0.87374
C    -0.43592   1.27928  -2.31749
H     2.30534  -0.19080   2.16904
H     1.35310   1.21882   1.66527
H     3.13841   1.23953   1.46374
H    -1.18028   2.06929   1.01923
H    -3.37401   1.02411   0.57155
H    -2.84161   0.43266  -1.02514
H    -3.25901   2.14195  -0.80059
H     0.62153   2.07498  -0.53164
H    -0.84456   2.12816  -2.88307
H    -1.11339   0.42318  -2.47993
H     0.54406   1.03186  -2.73700
25

C     2.24032   0.61324   1.41857
C     2.14346  -0.00162   0.05265
O     2.96545   0.17144  -0.83562
C     0.98826  -0.89919  -0.21968
C     0.89550  -1.58356  -1.45598
N     0.84292  -2.13954  -2.47858
N    -0.02726  -0.90908   0.58778
C    -0.94931  -0.61157   1.30624
C    -1.81692  -0.65093   2.33975
N    -2.61527  -0.61560   3.20128
C    -1.37672   1.75598  -0.03389
C    -2.78537   1.28680  -0.32569
C    -0.36437   1.72881  -0.87756
C    -0.43541   1.28002  -2.31966
H     2.30523  -0.19040   2.16951
H     1.35280   1.21867   1.66431
H     3.13823   1.23985   1.46379
H    -1.18065   2.06960   1.01917
H    -3.37231   1.02309   0.57223
H    -2.84020   0.43253  -1.02493
H    -3.26430   2.14022  -0.80106
H     0.62135   2.07578  -0.53196
H    -0.84325   2.12661  -2.88722
H    -1.11324   0.42300  -2.47898
H     0.54461   1.03005  -2.73572
25

C     2.24061   0.61312   1.41855
C     2.14658  -0.00434   0.05383
O     2.96565   0.17175  -0.83594
C     0.99632  -0.91128  -0.21602
C     0.89705  -1.58776  -1.45631
N     0.84283  -2.14071  -2.48053
N    -0.02515  -0.90131   0.58061
C    -0.94671  -0.63601   1.32054
C    -1.81765  -0.65827   2.34641
N    -2.61989  -0.61444   3.20588
C    -1.38109   1.78065  -0.04602
C    -2.78706   1.28909  -0.32710
C    -0.37078   1.74463  -0.88138
C    -0.43490   1.28077  -2.32183
H     2.30513  -0.19000   2.16998
H     1.35250   1.21852   1.66335
H     3.13805   1.24018   1.46385
H    -1.18101   2.06991   1.01910
H    -3.37061   1.02207   0.57290
H    -2.83880   0.43240  -1.02471
H    -3.26959   2.13849  -0.80153
H     0.62118   2.07659  -0.53227
H    -0.84194   2.12507  -2.89136
H    -1.11309   0.42282  -2.47803
H     0.54515   1.02824  -2.73444
25

C     2.24090   0.61300   1.41853
C     2.14970  -0.00706   0.05501
O     2.96584   0.17207  -0.83626
C     1.00438  -0.92337  -0.21235
C     0.89860  -1.59197  -1.45664
N     0.84274  -2.14188  -2.48248
N    -0.02303  -0.89354   0.57344
C    -0.94410  -0.66045   1.33484
C    -1.81837  -0.66561   2.35308
N    -2.62451  -0.61327   3.21047
C    -1.38547   1.80532  -0.05816
C    -2.78874   1.29138  -0.32851
C    -0.37719   1.76045  -0.88520
C    -0.43439   1.28152  -2.32401
H     2.30503  -0.18960   2.17045
H     1.35220   1.21837   1.66239
H     3.13787   1.24050   1.46390
H    -1.18138   2.07022   1.01904
H    -3.36892   1.02105   0.57357
H    -2.83739   0.43227  -1.02450
H    -3.27487   2.13677  -0.80200
H     0.62101   2.07739  -0.53258
H    -0.84063   2.12352  -2.89550
H    -1.11294   0.42264  -2.47709
H     0.54570   1.02643  -2.73316
25

C     2.24061   0.61312   1.41855
C     2.14658  -0.00434   0.05383
O     2.96565   0.17175  -0.83594
C     0.99632  -0.91128  -0.21602
C     0.89705  -1.58776  -1.45631
N     0.84283  -2.14071  -2.48053
N    -0.02515  -0.90131   0.58061
C    -0.94671  -0.63601   1.32054
C    -1.81765  -0.65827   2.34641
N    -2.61989  -0.61444   3.20588
C    -1.38109   1.78065  -0.04602
C    -2.78706   1.28909  -0.32710
C    -0.37078   1.74463  -0.88138
C    -0.43490   1.28077  -2.32183
H     2.30513  -0.19000   2.16998
H     1.35250   1.21852   1.66335
H     3.13805   1.24018   1.46385
H    -1.18101   2.06991   1.01910
H    -3.37061   1.02207   0.57290
H    -2.83880   0.43240  -1.02471
H    -3.26959   2.13849  -0.80153
H     0.62118   2.07659  -0.53227
H    -0.84194   2.12507  -2.89136
H    -1.11309   0.42282  -2.47803
H     0.54515   1.02824  -2.73444
25

C     2.24032   0.61324   1.41857
C     2.14346  -0.00162   0.05265
O     2.96545   0.17144  -0.83562
C     0.98826  -0.89919  -0.21968
C     0.89550  -1.58356  -1.45598
N     0.84292  -2.13954  -2.47858
N    -0.02726  -0.90908   0.58778
C    -0.94931  -0.61157   1.30624
C    -1.81692  -0.65093   2.33975
N    -2.61527  -0.61560   3.20128
C    -1.37672   1.75598  -0.03389
C    -2.78537   1.28680  -0.32569
C    -0.36437   1.72881  -0.87756
C    -0.43541   1.28002  -2.31966
H     2.30523  -0.19040   2.16951
H     1.35280   1.21867   1.66431
H     3.13823   1.23985   1.46379
H    -1.18065   2.06960   1.01917
H    -3.37231   1.02309   0.57223
H    -2.84020   0.43253  -1.02493
H    -3.26430   2.14022  -0.80106
H     0.62135   2.07578  -0.53196
H    -0.84325   2.12661  -2.88722
H    -1.11324   0.42300  -2.47898
H     0.54461   1.03005  -2.73572
25

C     2.24003   0.61336   1.41859
C     2.14034   0.00110   0.05147
O     2.96525   0.17112  -0.83530
C     0.98020  -0.88710  -0.22335
C     0.89396  -1.57936  -1.45565
N     0.84301  -2.13836  -2.47663
N    -0.02938  -0.91685   0.59495
C    -0.95192  -0.58713   1.29195
C    -1.81620  -0.64359   2.33308
N    -2.61065  -0.61676   3.19669
C    -1.37235   1.73131  -0.02176
C    -2.78369   1.28450  -0.32428
C    -0.35796   1.71300  -0.87374
C    -0.43592   1.27928  -2.31749
H     2.30534  -0.19080   2.16904
H     1.35310   1.21882   1.66527
H     3.13841   1.23953   1.46374
H    -1.18028   2.06929   1.01923
H    -3.37401   1.02411   0.57155
H    -2.84161   0.43266  -1.02514
H    -3.25901   2.14195  -0.80059
H     0.62153   2.07498  -0.53164
H    -0.84456   2.12816  -2.88307
H    -1.11339   0.42318  -2.47993
H     0.54406   1.03186  -2.73700
25

C     2.23974   0.61348   1.41861
C     2.13721   0.00382   0.05029
O     2.96506   0.17080  -0.83497
C     0.97214  -0.87502  -0.22701
C     0.89241  -1.57516  -1.45532
N     0.84310  -2.13719  -2.47468
N    -0.03149  -0.92463   0.60212
C    -0.95452  -0.56269   1.27765
C    -1.81548  -0.63625   2.32641
N    -2.60604  -0.61792   3.19209
C    -1.36798   1.70663  -0.00963
C    -2.78201   1.28221  -0.32287
C    -0.35155   1.69718  -0.86993
C    -0.43644   1.27853  -2.31531
H     2.30544  -0.19120   2.16857
H     1.35340   1.21897   1.66623
H     3.13859   1.23920   1.46369
H    -1.17992   2.06897   1.01930
H    -3.37571   1.02513   0.57088
H    -2.84301   0.43279  -1.02535
H    -3.25373   2.14368  -0.80012
H     0.62170   2.07418  -0.53133
H    -0.84588   2.12970  -2.87893
H    -1.11354   0.42337  -2.48087
H     0.54352   1.03368  -2.73828
25

C     2.23945   0.61360   1.41864
C     2.13409   0.00654   0.04911
O     2.96486   0.17049  -0.83465
C     0.96408  -0.86293  -0.23068
C     0.89086  -1.57096  -1.45499
N     0.84319  -2.13602  -2.47273
N    -0.03361  -0.93240   0.60929
C    -0.95712  -0.53825   1.26335
C    -1.81476  -0.62891   2.31974
N    -2.60142  -0.61908   3.18750
C    -1.36361   1.68196   0.00250
C    -2.78032   1.27992  -0.32146
C    -0.34514   1.68136  -0.86611
C    -0.43695   1.27778  -2.31314
H     2.30554  -0.19161   2.16810
H     1.35370   1.21912   1.66719
H     3.13877   1.23888   1.46363
H    -1.17955   2.06866   1.01937
H    -3.37741   1.02615   0.57020
H    -2.84442   0.43292  -1.02557
H    -3.24844   2.14540  -0.79965
H     0.62187   2.07338  -0.53102
H    -0.84719   2.13125  -2.87479
H    -1.11369   0.42355  -2.48182
H     0.54298   1.03549  -2.73956
25

C     2.23916   0.61372   1.41866
C     2.13097   0.00926   0.04793
O     2.96466   0.17017  -0.83433
C     0.95602  -0.85084  -0.23434
C     0.88932  -1.56676  -1.45466
N     0.84328  -2.13484  -2.47078
N    -0.03572  -0.94017   0.61646
C    -0.95973  -0.51382   1.24906
C    -1.81403  -0.62157   2.31307
N    -2.59680  -0.62024   3.18290
C    -1.35924   1.65729   0.01463
C    -2.77864   1.27762  -0.32004
C    -0.33873   1.66554  -0.86229
C    -0.43746   1.27704  -2.31097
H     2.30565  -0.19201   2.16763
H     1.35400   1.21927   1.66815
H     3.13895   1.23855   1.46358
H    -1.17919   2.06835   1.01943
H    -3.37911   1.02717   0.56953
H    -2.84582   0.43305  -1.02578
H    -3.24315   2.14713  -0.79919
H     0.62205   2.07258  -0.53070
H    -0.84850   2.13279  -2.87065
H    -1.11384   0.42373  -2.48277
H     0.54243   1.03730  -2.74083
25

C     2.23887   0.61384   1.41868
C     2.12784   0.01197   0.04675
O     2.96447   0.16986  -0.83400
C     0.94796  -0.83875  -0.23801
C     0.88777  -1.56256  -1.45433
N     0.84337  -2.13367  -2.46883
N    -0.03784  -0.94794   0.62363
C    -0.96233  -0.48938   1.23476
C    -1.81331  -0.61424   2.30640
N    -2.59219  -0.62140   3.17831
C    -1.35487   1.63262   0.02676
C    -2.77696   1.27533  -0.31863
C    -0.33232   1.64972  -0.85847
C    -0.43797   1.27629  -2.30880
H     2.30575  -0.19241   2.16716
H     1.35430   1.21942   1.66911
H     3.13913   1.23822   1.46353
H    -1.17882   2.06804   1.01950
H    -3.38080   1.02819   0.56886
H    -2.84723   0.43318  -1.02599
H    -3.23787   2.14886  -0.79872
H     0.62222   2.07177  -0.53039
H    -0.84981   2.13434  -2.86651
H    -1.11399   0.42391  -2.48371
H     0.54189   1.03911  -2.74211
25

C     2.23858   0.61396   1.41870
C     2.12472   0.01469   0.04557
O     2.96427   0.16954  -0.83368
C     0.93990  -0.82667  -0.24168
C     0.88622  -1.55836  -1.45400
N     0.84346  -2.13250  -2.46688
N    -0.03995  -0.95572   0.63080
C    -0.96493  -0.46494   1.22046
C    -1.81259  -0.60690   2.29973
N    -2.58757  -0.62256   3.17371
C    -1.35050   1.60795   0.03889
C    -2.77527   1.27304  -0.31722
C    -0.32591   1.63391  -0.85466
C    -0.43848   1.27554  -2.30662
H     2.30585  -0.19281   2.16669
H     1.35460   1.21957   1.67008
H     3.13931   1.23790   1.46347
H    -1.17845   2.06773   1.01956
H    -3.38250   1.02921   0.56818
H    -2.84864   0.43331  -1.02621
H    -3.23258   2.15058  -0.79825
H     0.62239   2.07097  -0.53008
H    -0.85113   2.13589  -2.86237
H    -1.11414   0.42409  -2.48466
H     0.54134   1.04092  -2.74339
25

C     2.23829   0.61408   1.41872
C     2.12160   0.01741   0.04439
O     2.96407   0.16922  -0.83336
C     0.93184  -0.81458  -0.24534
C     0.88467  -1.55416  -1.45367
N     0.84355  -2.13133  -2.46493
N    -0.04207  -0.96349   0.63797
C    -0.96754  -0.44050   1.20617
C    -1.81187  -0.59956   2.29306
N    -2.58295  -0.62372   3.16911
C    -1.34613   1.58328   0.05103
C    -2.77359   1.27075  -0.31581
C    -0.31950   1.61809  -0.85084
C    -0.43899   1.27479  -2.30445
H     2.30595  -0.19322   2.16622
H     1.35490   1.21972   1.67104
H     3.13949   1.23757   1.46342
H    -1.17809   2.06742   1.01963
H    -3.38420   1.03023   0.56751
H    -2.85004   0.43344  -1.02642
H    -3.22729   2.15231  -0.79778
H     0.62257   2.07017  -0.52976
H    -0.85244   2.13743  -2.85823
H    -1.11429   0.42427  -2.48561
H     0.54080   1.04273  -2.74467
25

C     2.23800   0.61420   1.41874
C     2.11848   0.02013   0.04320
O     2.96388   0.16891  -0.83303
C     0.92378  -0.80249  -0.24901
C     0.88313  -1.54996  -1.45334
N     0.84363  -2.13015  -2.46298
N    -0.04418  -0.97126   0.64514
C    -0.97014  -0.41606   1.19187
C    -1.81114  -0.59222   2.28640
N    -2.57833  -0.62488   3.16452
C    -1.34176   1.55861   0.06316
C    -2.77191   1.26845  -0.31440
C    -0.31309   1.60227  -0.84702
C    -0.43951   1.27405  -2.30228
H     2.30606  -0.19362   2.16575
H     1.35520   1.21987   1.67200
H     3.13967   1.23725   1.46337
H    -1.17772   2.06710   1.01969
H    -3.38590   1.03125   0.56683
H    -2.85145   0.43358  -1.02664
H    -3.22201   2.15404  -0.79731
H     0.62274   2.06937  -0.52945
H    -0.85375   2.13898  -2.85409
H    -1.11444   0.42445  -2.48655
H     0.54026   1.04454  -2.74595
25

C     2.23771   0.61432   1.41876
C     2.11535   0.02285   0.04202
O     2.96368   0.16859  -0.83271
C     0.91573  -0.79040  -0.25267
C     0.88158  -1.54576  -1.45301
N     0.84372  -2.12898  -2.46102
N    -0.04630  -0.97903   0.65231
C    -0.97274  -0.39162   1.17757
C    -1.81042  -0.58488   2.27973
N    -2.57372  -0.62604   3.15992
C    -1.33739   1.53394   0.07529
C    -2.77023   1.26616  -0.31299
C    -0.30668   1.58645  -0.84321
C    -0.44002   1.27330  -2.30011
H     2.30616  -0.19402   2.16528
H     1.35550   1.22002   1.67296
H     3.13985   1.23692   1.46331
H    -1.17736   2.06679   1.01976
H    -3.38760   1.03227   0.56616
H    -2.85285   0.43371  -1.02685
H    -3.21672   2.15576  -0.79684
H     0.62291   2.06857  -0.52914
H    -0.85506   2.14052  -2.84995
H    -1.11459   0.42463  -2.48750
H     0.53971   1.04635  -2.74723
25

C     2.23742   0.61444   1.41878
C     2.11223   0.02557   0.04084
O     2.96349   0.16827  -0.83239
C     0.90767  -0.77832  -0.25634
C     0.88003  -1.54155  -1.45268
N     0.84381  -2.12781  -2.45907
N    -0.04841  -0.98681   0.65947
C    -0.97535  -0.36719   1.16328
C    -1.80970  -0.57754   2.27306
N    -2.56910  -0.62720   3.15533
C    -1.33302   1.50927   0.08742
C    -2.76854   1.26387  -0.31157
C    -0.30027   1.57064  -0.83939
C    -0.44053   1.27255  -2.29793
H     2.30626  -0.19442   2.16482
H     1.35580   1.22016   1.67392
H     3.14003   1.23660   1.46326
H    -1.17699   2.06648   1.01983
H    -3.38930   1.03329   0.56549
H    -2.85426   0.43384  -1.02706
H    -3.21143   2.15749  -0.79637
H     0.62309   2.06777  -0.52882
H    -0.85638   2.14207  -2.84581
H    -1.11475   0.42481  -2.48844
H     0.53917   1.04816  -2.74850
25

C     2.23713   0.61456   1.41880
C     2.10911   0.02829   0.03966
O     2.96329   0.16796  -0.83206
C     0.89961  -0.76623  -0.26001
C     0.87849  -1.53735  -1.45235
N     0.84390  -2.12663  -2.45712
N    -0.05053  -0.99458   0.66664
C    -0.97795  -0.34275   1.14898
C    -1.80898  -0.57020   2.26639
N    -2.56448  -0.62836   3.15073
C    -1.32865   1.48460   0.09955
C    -2.76686   1.26157  -0.31016
C    -0.29386   1.55482  -0.83557
C    -0.44104   1.27181  -2.29576
H     2.30636  -0.19483   2.16435
H     1.35610   1.22031   1.67488
H     3.14022   1.23627   1.46321
H    -1.17663   2.06617   1.01989
H    -3.39099   1.03431   0.56481
H    -2.85566   0.43397  -1.02728
H    -3.20615   2.15922  -0.79590
H     0.62326   2.06696  -0.52851
H    -0.85769   2.14362  -2.84167
H    -1.11490   0.42499  -2.48939
H     0.53862   1.04998  -2.74978
25

C     2.23684   0.61468   1.41882
C     2.10599   0.03101   0.03848
O     2.96309   0.16764  -0.83174
C     0.89155  -0.75414  -0.26367
C     0.87694  -1.53315  -1.45202
N     0.84399  -2.12546  -2.45517
N    -0.05264  -1.00235   0.67381
C    -0.98055  -0.31831   1.13468
C    -1.80826  -0.56286   2.25972
N    -2.55987  -0.62952   3.14614
C    -1.32427   1.45993   0.11168
C    -2.76518   1.25928  -0.30875
C    -0.28745   1.53900  -0.83175
C    -0.44155   1.27106  -2.29359
H     2.30647  -0.19523   2.16388
H     1.35640   1.22046   1.67584
H     3.14040   1.23595   1.46315
H    -1.17626   2.06586   1.01996
H    -3.39269   1.03532   0.56414
H    -2.85707   0.43410  -1.02749
H    -3.20086   2.16095  -0.79543
H     0.62343   2.06616  -0.52820
H    -0.85900   2.14516  -2.83753
H    -1.11505   0.42517  -2.49034
H     0.53808   1.05179  -2.75106
25

C     2.23655   0.61480   1.41884
C     2.10286   0.03373   0.03730
O     2.96290   0.16733  -0.83142
C     0.88349  -0.74205  -0.26734
C     0.87539  -1.52895  -1.45169
N     0.84408  -2.12429  -2.45322
N    -0.05476  -1.01012   0.68098
C    -0.98316  -0.29387   1.12038
C    -1.80753  -0.55552   2.25305
N    -2.55525  -0.63068   3.14154
C    -1.31990   1.43526   0.12381
C    -2.76349   1.25699  -0.30734
C    -0.28104   1.52318  -0.82794
C    -0.44206   1.27031  -2.29141
H     2.30657  -0.19563   2.16341
H     1.35670   1.22061   1.67680
H     3.14058   1.23562   1.46310
H    -1.17590   2.06555   1.02002
H    -3.39439   1.03634   0.56347
H    -2.85847   0.43423  -1.02770
H    -3.19557   2.16267  -0.79496
H     0.62361   2.06536  -0.52789
H    -0.86031   2.14671  -2.83339
H    -1.11520   0.42535  -2.49128
H     0.53754   1.05360  -2.75234
25

C     2.23626   0.61492   1.41886
C     2.09974   0.03645   0.03612
O     2.96270   0.16701  -0.83110
C     0.87543  -0.72997  -0.27100
C     0.87385  -1.52475  -1.45136
N     0.84417  -2.12312  -2.45127
N    -0.05687  -1.01790   0.68815
C    -0.98576  -0.26943   1.10609
C    -1.80681  -0.54818   2.24638
N    -2.55063  -0.63185   3.13695
C    -1.31553   1.41059   0.13594
C    -2.76181   1.25470  -0.30593
C    -0.27463   1.50737  -0.82412
C    -0.44258   1.26957  -2.28924
H     2.30667  -0.19603   2.16294
H     1.35700   1.22076   1.67776
H     3.14076   1.23530   1.46305
H    -1.17553   2.06523   1.02009
H    -3.39609   1.03736   0.56279
H    -2.85988   0.43436  -1.02792
H    -3.19029   2.16440  -0.79450
H     0.62378   2.06456  -0.52757
H    -0.86163   2.14825  -2.82925
H    -1.11535   0.42553  -2.49223
H     0.53699   1.05541  -2.75362
25

C     2.23597   0.61504   1.41888
C     2.09662   0.03916   0.03494
O     2.96250   0.16669  -0.83077
C     0.86737  -0.71788  -0.27467
C     0.87230  -1.52055  -1.45103
N     0.84426  -2.12194  -2.44932
N    -0.05899  -1.02567   0.69532
C    -0.98836  -0.24500   1.09179
C    -1.80609  -0.54084   2.23971
N    -2.54601  -0.63301   3.13235
C    -1.31116   1.38592   0.14808
C    -2.76013   1.25240  -0.30452
C    -0.26822   1.49155  -0.82030
C    -0.44309   1.26882  -2.28707
H     2.30678  -0.19643   2.16247
H     1.35730   1.22091   1.67872
H     3.14094   1.23497   1.46299
H    -1.17517   2.06492   1.02016
H    -3.39779   1.03838   0.56212
H    -2.86128   0.43449  -1.02813
H    -3.18500   2.16613  -0.79403
H     0.62395   2.06376  -0.52726
H    -0.86294   2.14980  -2.82511
H    -1.11550   0.42571  -2.49318
H     0.53645   1.05722  -2.75490
25

C     2.23568   0.61516   1.41890
C     2.09349   0.04188   0.03376
O     2.96231   0.16638  -0.83045
C     0.85931  -0.70579  -0.27834
C     0.87075  -1.51635  -1.45070
N     0.84435  -2.12077  -2.44737
N    -0.06110  -1.03344   0.70249
C    -0.99097  -0.22056   1.07749
C    -1.80537  -0.53351   2.23305
N    -2.54140  -0.63417   3.12776
C    -1.30679   1.36125   0.16021
C    -2.75844   1.25011  -0.30311
C    -0.26181   1.47573  -0.81648
C    -0.44360   1.26807  -2.28490
H     2.30688  -0.19684   2.16200
H     1.35760   1.22106   1.67968
H     3.14112   1.23465   1.46294
H    -1.17480   2.06461   1.02022
H    -3.39948   1.03940   0.56144
H    -2.86269   0.43462  -1.02835
H    -3.17971   2.16785  -0.79356
H     0.62413   2.06295  -0.52695
H    -0.86425   2.15134  -2.82097
H    -1.11565   0.42589  -2.49412
H     0.53590   1.05903  -2.75617
25

C     2.23539   0.61528   1.41892
C     2.09037   0.04460   0.03258
O     2.96211   0.16606  -0.83013
C     0.85125  -0.69370  -0.28200
C     0.86920  -1.51215  -1.45037
N     0.84444  -2.11960  -2.44542
N    -0.06322  -1.04121   0.70966
C    -0.99357  -0.19612   1.06320
C    -1.80464  -0.52617   2.22638
N    -2.53678  -0.63533   3.12316
C    -1.30242   1.33658   0.17234
C    -2.75676   1.24782  -0.30169
C    -0.25540   1.45991  -0.81267
C    -0.44411   1.26732  -2.28272
H     2.30698  -0.19724   2.16153
H     1.35790   1.22121   1.68064
H     3.14130   1.23432   1.46289
H    -1.17444   2.06430   1.02029
H    -3.40118   1.04042   0.56077
H    -2.86409   0.43475  -1.02856
H    -3.17443   2.16958  -0.79309
H     0.62430   2.06215  -0.52663
H    -0.86556   2.15289  -2.81683
H    -1.11580   0.42607  -2.49507
H     0.53536   1.06084  -2.75745
