10

O -2.850816454 3.937934414 0.332145388
C -1.954500569 2.081429618 -0.272900301
C -1.738328732 -1.855484476 -0.101458753
N 0.486187603 -2.328057283 -1.067832568
C 2.303466485 -0.704677209 -0.375329731
N 1.730608483 1.379379336 0.785417061
H -1.948015105 -1.447236680 1.915206908
H -3.399200840 -2.599989893 -1.052917526
H 4.207282672 -1.129580937 -1.035492116
H 3.171943057 2.637239891 0.870357284

