19

C 3.682358196 -1.615754670 -0.674186686
C 1.179013867 -0.237293495 -0.326985169
O 1.088341463 0.568317690 2.407933077
C 0.762842847 2.098744857 -1.763901451
C -2.433539792 1.785833366 1.998587823
C -3.374807443 -0.285971990 0.334763585
C -1.110085105 -1.971450959 -0.394726598
H 5.257448909 -0.296455605 -0.492108512
H 3.756445476 -2.427886129 -2.566873747
H 3.935414597 -3.130743021 0.704459701
H 1.803779207 2.248481351 2.359012641
H 2.453296312 3.211743372 -2.144756079
H -0.472294054 1.973828291 -3.399076855
H -2.579502975 1.519461030 4.025529154
H -2.628032314 3.708654888 1.359484999
H -4.197576169 0.545626482 -1.359438890
H -4.819720951 -1.398321686 1.306837399
H -1.344173550 -2.839403226 -2.249300245
H -0.871529009 -3.480839428 0.992139399

