11

C 4.680982058 -0.768702869 -0.385339685
C 2.494092060 -0.416566616 -0.911219399
C -0.029902516 -0.098177792 -1.783359602
C -1.982818928 -1.250426240 -0.151744157
C -1.807841854 1.453129489 0.808847020
H 6.623790817 -1.073848757 0.034140586
H -0.582976276 2.410520377 -0.833332598
H -3.761791738 -1.726599051 -1.053100150
H -1.382801593 -2.649920539 1.225886370
H -3.516955269 2.560050853 0.552784141
H -0.838393889 1.685238520 2.596099741

