10

C -1.171631520 -1.680480398 -0.945456833
C 1.045841353 -0.181507911 0.045394699
C 3.631099300 -1.327331744 -0.340688934
H 5.076765315 -0.072665865 0.407291387
H 3.968808627 -1.665456112 -2.349223954
H 3.739234606 -3.158768756 0.606687993
O 0.767220870 1.822324431 1.091196537
H -1.200004416 -3.559537790 -0.090844313
H -2.928530477 -0.698722304 -0.529658863
H -0.988261719 -1.946554328 -2.984966392

