13

C -1.569500732 -1.854895826 -0.011182417
C 0.518846247 -0.063395625 0.510086422
C 2.936117236 -0.313130624 -0.861180264
O 0.567976651 1.311115512 2.495808290
C -2.153999826 3.289905242 -1.247146393
N -3.525647007 3.740409052 0.415793642
H -0.932127933 -3.666311719 0.779708161
H -3.332989637 -1.274691892 0.857837433
H -1.830687717 -2.088303572 -2.035418377
H 4.463243449 0.613109887 0.152783715
H 2.657375452 0.636819959 -2.673808038
H 3.365967606 -2.292192511 -1.240903853
H -1.160095177 1.958835280 2.814059712

