15

C 3.945828632 0.426011184 0.281426651
C 1.455746060 1.425449820 -0.531028234
N -0.153505892 1.171440129 3.559244202
C -1.541006667 -0.460122743 2.766839160
O -1.238496210 -1.157568462 0.057204750
C -3.459144616 -1.202190262 -1.451681751
H 3.904752184 -1.631690391 0.396784623
H 5.347378707 0.914916988 -1.166659159
H 4.507601123 1.178540019 2.105683610
H 0.974229198 1.008518279 -2.481895219
H 0.929159759 3.304077526 0.052900464
H -2.988451803 -1.683775117 3.585968105
H -4.717876750 -2.715426950 -0.832912739
H -2.896559335 -1.587167498 -3.395497053
H -4.458025216 0.606458807 -1.356994907

