10

C -2.491219771 2.197523922 -0.204505103
C -1.800044069 4.373549091 1.386745470
H -0.372778166 3.823304667 2.772720083
H -3.445847086 5.036667311 2.441897730
H -1.064248022 5.931110477 0.257113963
C -2.703470615 1.106753556 -2.365709774
H -2.492753151 1.140902589 -4.387024955
C -3.536385678 -0.437823446 -0.135713535
H -2.352760652 -1.986516309 0.533586527
H -5.546788825 -0.728690450 0.213858624

