12

N 4.030438568 0.478847813 0.169606491
C 1.457222995 0.203564284 -0.196009027
N -0.044504789 -1.880716799 -1.261946407
C -2.390586582 -2.013674546 0.110117233
C -2.963778405 0.247117728 1.018151895
C -0.813796874 1.824248210 0.146404925
N 0.066880771 0.791109994 -2.364103469
H 5.040211644 -0.125759082 -1.333621300
H 4.650872032 -0.322658868 1.783070095
H -3.351178005 -3.807659813 0.222729111
H -4.571243829 0.854908074 2.110438653
H -0.655270395 3.850216219 0.375858646

