10

O -0.527152047 -1.220193967 -3.192096098
C 0.709292166 0.088441790 -1.322614685
C 0.886635347 -1.002675340 1.389808773
O 1.327208836 1.503401552 2.343592098
C -0.797504203 1.639031296 0.653692266
O -1.837969266 -0.705688175 1.651551091
H -2.014293904 -1.957696758 -2.440342353
H 2.411524634 0.963637567 -2.068707509
H 1.821101911 -2.618534437 2.246860646
H -1.963837177 3.328638939 0.591779301

