16

C 1.340966382 2.314993701 1.074678082
C 0.188609823 0.088676797 -0.350314519
C 2.215341205 -1.712507401 -1.333314711
C -1.693031486 -1.367882942 1.321527601
O -3.679071868 0.127791954 2.236008327
C -2.428518091 1.832908221 -4.133298855
N -1.219628164 1.053555800 -2.469594028
H 2.567365038 3.410993487 -0.165830970
H 2.459321515 1.613841852 2.658619307
H -0.137862286 3.543068562 1.808593738
H 3.271247333 -2.502686251 0.251607944
H 1.372215233 -3.259562892 -2.402567994
H 3.531617748 -0.712223396 -2.561853028
H -2.400339194 -3.000988718 0.258704168
H -0.674288504 -2.069911340 2.972543710
H -4.713944683 0.639934436 0.834491208

