13

C -4.350855219 0.997660045 0.217132140
C -1.650647140 0.397965928 -0.113662113
C -0.047532829 -0.822894620 -1.420076856
C 2.548991778 -0.314984785 -1.755620784
C 2.916574085 -0.184983873 1.048164884
N 4.847636816 -1.326336406 -0.478674185
H -5.543584379 -0.066469529 -1.083322218
H -4.654848148 3.010723435 -0.121167274
H -4.957924975 0.609196359 2.149102827
H 3.002263792 1.294987834 -2.929412091
H 2.027737793 -1.584751616 2.254505798
H 0.674465061 1.498756359 1.386348476
H 4.867095421 -3.232935120 -0.239826087

