14

O -1.888290783 -1.388661010 2.510608644
C -1.753594979 -0.094773582 0.197113666
C -0.121774235 2.308198057 0.567009640
O 2.009175562 1.718070358 1.983386639
C 3.560310783 -0.899268279 -0.455555313
N 2.068592028 -1.939517044 -1.717677068
C -0.694492209 -1.821847597 -1.855296581
H -0.412146093 -0.825893653 3.441757076
H -3.671678712 0.424800209 -0.377658289
H 0.335676568 3.130515233 -1.294445974
H -1.259180755 3.710919026 1.584188062
H 4.379680100 0.594458914 0.795893987
H -1.155562385 -1.160216176 -3.752821907
H -1.403929864 -3.741643969 -1.640078356

