13

C -3.261566663 0.910775408 0.561626925
C -2.304089584 0.518399554 -2.133315658
C 0.451476642 -0.112923287 -2.233575493
O 0.933902405 -2.356900116 -1.071921142
H 2.715874362 -2.693635970 -1.131238322
C 2.222875845 1.316488646 -3.298086282
H 1.722268762 3.080580581 -4.193468472
H 4.197069345 0.767829721 -3.308693579
H -3.347068871 -1.030585688 -3.021402447
H -2.631648342 2.207258298 -3.268096687
H -5.281973736 1.322272550 0.562624814
H -2.948972174 -0.772618854 1.707263770
H -2.285752532 2.489370126 1.462834933

