16

C 2.900960091 -0.677661004 1.316164369
C 0.921050434 -2.065302412 -0.213435344
C -2.671593128 -1.381137613 -0.749209985
C -2.664645266 1.396456942 0.167364218
C -0.729940976 2.151427814 -1.881430643
C -0.433887449 -0.678009167 -2.375239379
H 3.686163859 -1.916608442 2.763760003
H 2.129094709 0.978794021 2.267676130
H 4.443072966 -0.041578983 0.101987215
H 1.551942550 -3.883623988 -0.934972141
H -0.695102156 -2.720645316 1.096165194
H -4.559644785 2.167285432 -0.101584987
H -2.155110588 1.727142422 2.137363338
H 0.947435490 3.219542574 -1.328441750
H -1.617987571 3.120438193 -3.466011729
H -0.063732752 -1.465419890 -4.235426401

