13

O 4.065212136 -1.892194428 0.307620560
C 2.686874663 0.336207468 0.671066502
C -0.136069238 0.065392744 0.356098517
C -1.224925312 -2.022589877 -0.694104399
C -3.841052219 -1.985161338 -1.220195270
C -1.537886351 2.225206085 1.128119367
C -2.507169872 4.127464722 1.889555690
H 3.719151542 -3.034036646 1.672656308
H 3.030091540 1.170730102 2.538889454
H 3.372924198 1.705547313 -0.715966206
H 0.057235288 -3.535238407 -1.253992909
H -4.204361779 -3.269809913 -2.824592479
H -3.448694827 5.780535285 2.544648867

