13

O 3.756192763 -1.998797828 -0.025185816
C 2.653560832 0.194733310 0.952382358
C -0.182600664 0.309746445 0.565348533
C -1.493715666 -1.776895982 -0.366568507
C -3.099237035 -3.577416470 -0.578277850
C -1.423857574 2.619901295 1.078029719
C -2.434051190 4.597267663 1.550954544
H 2.971541305 -3.448568367 0.739980279
H 2.988296373 0.388527748 2.994616675
H 3.577111223 1.793930937 0.033280042
H -0.157396668 -1.340703502 -2.071832209
H -3.776796088 -4.382050402 -2.334231056
H -3.351981063 6.337138355 1.972799203

