11

O -3.203277910 -0.747317537 -0.539258237
C -1.741419889 1.404294941 -0.009915601
C 1.051704587 0.834460217 0.063895817
C 2.019856974 -1.645985148 0.760105937
O 1.909939429 -0.872848321 -1.819280102
H -2.486127034 -1.527641560 -2.016970266
H -2.075939888 2.896890868 -1.413305552
H -2.350026672 2.124890995 1.826084268
H 2.266344025 2.471445979 0.340761500
H 0.695602234 -3.123532884 1.276694775
H 3.913344107 -1.814657567 1.531187442

