11

O -3.647671253 -0.552457256 -0.105873059
C -1.902317672 1.293787310 0.282471045
C 0.617483412 0.878671512 0.907670890
C 2.022263351 -1.377784804 -0.029294421
O 2.420441742 -0.247248043 -2.320067313
H -2.832188120 -2.177671896 -0.157834367
H -0.266557133 1.417718308 -1.570414944
H -2.748662282 3.143257695 0.485003142
H 1.748586033 2.497660203 1.440228347
H 0.883919716 -3.134038023 -0.047383749
H 3.724946860 -1.770819152 1.097547699

