13

N -3.454374002 1.329340976 -0.349679816
C -0.837497158 0.825065462 0.019757049
C 0.030140300 -1.683859474 0.012842050
O -1.294272402 -3.827522384 -0.015988576
N 2.532974630 -1.628489100 -0.072584002
C 3.368044037 0.865192039 -0.166662657
C 1.404759398 2.586336811 -0.267275191
H -3.686560324 2.646728867 -1.712074767
H -4.330023200 1.952872306 1.226600422
H -3.037490196 -3.332732880 -0.261034408
H 3.626329026 -3.187044992 -0.018419898
H 5.379803535 1.200335458 -0.208027193
H 0.116013764 1.927390955 1.832914457

