10

O 3.158850448 -0.772021511 0.103593407
C 0.758149731 -0.373427986 -0.912567246
C -0.603640507 1.909769788 -0.013692785
C -1.515294921 -0.681673497 0.743022398
H 3.398943044 -2.555917190 0.315826129
H 0.570152123 -0.874679541 -2.895826839
H -1.700663032 2.991504542 -1.356805046
H 0.348293513 3.010022195 1.422291861
H -3.240790485 -1.403673410 -0.083934888
H -1.173999933 -1.249903409 2.678093011

