8

O -0.884732431 4.115651100 -0.074228140
C -0.204978819 1.942229482 -0.033340967
N 2.176915967 0.893762600 0.003658604
N 1.752909915 -1.546719196 0.039112550
N -0.529697792 -2.336484819 0.033556660
N -1.803013074 -0.199016809 -0.012236109
H 3.182688247 -2.807124399 0.071764995
H -3.702388462 -0.226535965 -0.027550601

