8

O 0.027929850 3.761113553 -0.084602434
C 0.010918970 1.484814640 -0.033268062
N 1.978230635 -0.218283493 0.014937208
N 1.167269616 -2.634187076 0.064887091
N -1.205666281 -2.616877601 0.052907116
N -1.981428883 -0.189329525 -0.005237565
H 3.832626591 0.178537488 0.014604295
H -3.829880479 0.234212032 -0.024227650

