13

C 0.656822030 2.832987153 -0.014213273
C 0.863275365 0.167953416 1.083998570
O 1.723441243 0.272983430 3.566347626
H 0.550255706 -0.727180729 4.561451609
C -1.691643520 -1.157543139 0.949577249
N -2.641658505 -1.961368458 2.970435286
H -4.346440913 -2.804999874 2.721306871
H -2.547054450 -1.320555960 -0.923662112
C 2.628227031 -1.347555970 -0.496975634
N 3.942117077 -2.510455595 -1.769044473
H 2.492354948 3.755914652 0.099015035
H -0.700463894 3.905352096 1.104059752
H 0.054303699 2.788596730 -1.985358247

