13

C -4.090793340 0.446552167 -1.191691946
O -1.623332189 -0.107712254 -2.039962583
C 0.354546787 -0.828437376 2.136787539
C 0.239733302 0.620704413 -0.354968423
N 2.724989626 0.514286206 -1.576456134
C 4.126743187 -0.550168401 0.017442456
N 2.784686414 -1.337658624 2.231671651
H -4.330024258 2.485803532 -0.897387681
H -4.527364464 -0.538659515 0.570652635
H -5.376298566 -0.172960585 -2.672750925
H -0.012275888 2.615577998 0.243032575
H 6.137494346 -0.888556518 -0.175323083
H 3.613367981 -2.266524569 3.674806548

