13

C -3.855788000 0.009249605 -0.826424818
O -1.256801382 -0.612987849 -0.939370876
C 0.062588787 -0.034787609 1.739937701
C 0.849773083 1.798610693 -0.189394494
N 3.232553396 1.440270923 -1.124908136
C 3.986744282 -0.592598082 0.076512875
N 2.279065264 -1.580960126 1.651089091
H -4.156628847 2.005140467 -0.386600284
H -4.760440601 -1.123291683 0.640061652
H -4.650095090 -0.404176948 -2.683860871
H -0.204372690 3.470514569 -0.710894824
H 5.860784320 -1.392021132 -0.144690906
H 2.619237207 -2.991895583 2.870621313

