19

C -4.578901831 -0.703674293 0.265302392
C -1.995088088 0.370505430 0.249068058
C -0.441564329 1.438773806 -1.903781322
C 1.715138636 0.556684460 -0.213658426
C 3.327543767 -1.574252184 -0.343775707
C 4.548988733 0.897959531 0.150314221
C -0.198288584 0.836579336 2.209222876
H -4.958697438 -1.873357884 -1.388162859
H -5.934934187 0.869832412 0.221016377
H -4.936975887 -1.797345257 1.973547194
H -0.755146559 -3.443037819 0.430893575
H -0.623886088 0.465508708 -3.711373902
H -0.675874759 3.480560202 -2.196224471
H 3.687550748 -2.578646079 -2.092021079
H 0.733290497 -3.601877274 0.639095435
H 5.713350306 1.781562812 -1.299503429
H 5.061767863 1.457691042 2.060870796
H 0.135105761 2.801057546 2.746741545
H -0.135374216 -0.423856858 3.840679546

