8

C -1.945045041 1.071948372 2.463968994
C -0.244765510 -0.399917071 1.416570261
C 2.230276410 -1.268499750 0.764126065
H 3.333004887 -2.351922880 2.110615682
H 3.268422174 -0.368003697 -0.757278246
O -0.118584453 -2.488574324 -0.027390144
H -1.350582613 2.684047179 3.564109132
H -3.939111940 0.689842481 2.235705083

