11

O -1.639434904 2.262022259 -2.680563620
C -1.360197274 1.128219862 0.449029956
C 0.706972999 -0.509423619 -0.120850272
C 2.516664763 -1.728655337 1.535583569
O 0.561862234 -3.159835109 0.359732460
H -3.016676601 1.422140135 -3.541608258
H -0.995171257 2.938551109 1.335348510
H -3.244962433 0.370828460 0.764400529
H 0.028002396 0.991266232 -2.674170506
H 2.342409621 -1.573832929 3.579731479
H 4.418930430 -2.104457839 0.858093887

