13

O 1.208353566 2.190190878 2.938931775
C 1.194087098 1.083353229 0.964412544
C 3.487708809 0.195817257 -0.489924178
O 2.449507770 -1.467403970 -2.402220435
C -0.010828981 -1.605143934 -2.511635219
C -3.334508485 -0.683568326 0.904908847
C -1.054701579 0.227777345 -0.587690179
H 4.810453072 -0.874931158 0.666203576
H 4.470875845 1.756715710 -1.409823089
H -4.876114630 -1.159538615 -0.372575228
H -2.864779225 -2.365710152 1.999248679
H -3.959440745 0.777569539 2.213908868
H -1.611232461 1.860443911 -1.756379018

