15

C 4.025789237 0.319491971 0.763959354
C 1.211958124 0.099672471 0.768781028
C -0.513627901 1.835302504 0.090775867
O -0.203036427 4.226494724 -0.763642371
H 1.568065788 4.614882009 -0.836710975
C -3.138538311 0.831699232 0.368527642
H -4.138289792 0.848623752 -1.442302605
H -4.248526455 1.984589960 1.678579239
C -2.683894375 -1.793292153 1.335113182
H -4.165506572 -3.128151583 1.769279252
C -0.193973036 -2.166489347 1.546854424
H 0.706841833 -3.885626965 2.198194208
H 4.805404518 0.081805715 2.661822355
H 4.671377960 2.153916186 0.067853905
H 4.887767380 -1.119998269 -0.440556047

