17

C 3.962195209 0.433108768 0.756827414
C 1.195123027 -0.106533594 0.585009867
C -0.033109910 -2.341589291 1.176056843
C -2.549980729 -2.205497565 0.345857373
C -3.181194797 0.573007631 0.186757173
C -0.605235871 1.471028937 -0.595294211
O -0.252822811 3.927278211 -1.243134070
H 4.343356200 2.187159568 1.783595591
H 4.823106565 0.596657043 -1.116514445
H 4.937635288 -1.086219773 1.746858861
H 0.899858441 -4.045566090 1.818542863
H -3.956766480 -3.644367010 0.708539488
H -1.896149001 -1.907595016 -2.421918752
H -4.681983727 1.059721788 -1.132410519
H -3.611427515 1.316323409 2.068642786
H -1.044764171 -0.404382834 -2.942264648
H 1.523311215 4.296709426 -1.279370872

