10

C -0.991805598 0.103319491 0.993449036
C -0.434998702 2.446051291 -0.547272112
N 1.932738408 2.161727445 -0.918993883
C 1.883109532 -0.206523198 0.595743644
N 1.424493392 -2.517596473 -0.940828762
C -0.948691062 -2.290870705 -0.567774280
H -1.999441998 0.201940045 2.778605729
H -1.609877093 3.980664901 -1.243653027
H 3.287907971 -0.372509768 2.081780162
H -2.424058980 -3.538515456 -1.266404271

