15

O 1.682984058 -2.056168269 -1.584054628
C 2.852789706 0.284782691 -0.747135991
C 0.611090658 1.161673079 0.792512435
C -1.665612600 2.159834960 -0.772648106
C -3.008230489 -0.445802380 -0.594721661
C -0.639304250 -1.490024332 0.606962929
O -0.190600347 -3.544403994 1.837101504
H 1.545237801 -3.527597847 0.208317984
H 3.333958121 1.447571407 -2.378604566
H 4.556858516 -0.096185491 0.352049798
H 0.941322056 2.031187092 2.624883123
H -2.683153319 3.716517207 0.104240846
H -1.161359290 2.696217790 -2.696194168
H -3.627602645 -1.351246757 -2.334787354
H -4.552039469 -0.478326834 0.774257038

