11

C -2.226233737 -0.835445387 -0.423443027
C -0.650515617 -1.386990511 1.878324934
C 3.884795278 1.540204724 -2.311867678
O 2.243860347 -0.084370583 -1.542834788
C 0.158999836 0.573667202 0.038068117
H -3.988899496 0.176497793 -0.210328785
H -2.189031039 -2.213628546 -1.932540345
H -1.307179761 -0.761866444 3.709877295
H 0.418701137 -3.129060296 1.880702890
H 3.314082870 3.423715615 -1.504675718
H 0.152438122 2.566433667 0.519887354

