13

N 3.781174489 1.699037093 -0.328597030
C 1.399366365 0.559358479 -0.108497662
C 0.605380189 -1.988442261 0.165102216
O 1.869954015 -3.919621021 0.290450112
C -2.308804621 -1.871117387 0.279209019
C -2.893471125 0.863996749 0.045512618
N -0.734566497 2.038950068 -0.158331780
H 4.733408617 1.077703968 -1.864629069
H 4.877799037 1.371484363 1.201761200
H -2.990482843 -2.678981295 2.053892057
H -3.128882548 -2.989920233 -1.251527421
H -4.675410579 1.847179338 0.028085223
H -0.560575180 3.932884801 -0.346818922

