9

C -0.636588770 1.296353917 0.172701806
C 1.587553702 -0.283492726 -0.602907029
N 2.635409464 -1.775824451 1.018647853
N 3.566645447 -3.042772377 2.452566840
N -4.979904889 -0.667607755 -1.140503819
C -3.081356654 0.197672439 -0.554785701
H -0.643683086 1.586390575 2.215072769
H 2.261553134 -0.418459951 -2.520478060
H -0.505167540 3.167117433 -0.687725761

