19

C -2.302828400 -1.405717508 -1.983135192
C -1.484657679 0.486396154 0.003029344
C -3.647260729 1.515189871 1.559258303
C 2.154478814 1.111176762 3.286857794
O 0.184192172 -0.793694289 1.762630912
C 2.950648304 -0.798564907 1.416151611
C 4.045291059 -0.041359774 -1.089080327
H -3.586312904 -0.500521346 -3.319188230
H -0.692669303 -2.139188814 -3.038124350
H -3.288174347 -2.991961270 -1.107271247
H -0.440182920 2.053687966 -0.830237057
H -4.667567384 -0.017232809 2.490491773
H -4.962558942 2.534957444 0.341995113
H -2.921923654 2.810443155 2.986419932
H 2.116275204 0.189581426 5.147030529
H 3.584640648 -2.672969831 2.001497472
H 3.417395161 1.826341914 -1.678055785
H 3.678751654 -1.427048793 -2.573601058
H 6.090607992 0.061551309 -0.826930924

