19

C -3.695129892 -2.229902112 -0.014907577
C -1.749437071 -0.358663329 -0.915998554
C -2.149254950 2.335363229 -0.131687965
C 0.818350660 -1.583153059 1.881282942
O 1.505560394 -1.360172708 -1.268276253
C 3.206371278 -0.812887387 0.735516764
C 4.277237858 1.812437762 0.922397979
H -5.415375343 -1.924628535 -1.130328570
H -3.084202997 -4.165618387 -0.368427222
H -4.104923597 -2.003613153 1.987188920
H -1.704891124 -0.454958802 -2.974980758
H -2.329842640 2.523445384 1.906308622
H -3.894111835 2.978442604 -1.046697720
H -0.635800169 3.551816275 -0.809043476
H 0.803860051 -3.641222392 2.148375037
H 4.662148235 -2.272285399 0.662303370
H 2.811969090 3.207121707 1.286402109
H 5.285134492 2.315993007 -0.807311712
H 5.620486027 1.883550046 2.487622677

