14

C 0.589925933 -1.540693124 2.496914630
C -1.018026682 -1.017335684 0.426107975
C -1.598660189 -3.018951586 -1.522971914
H -0.100267394 -3.062750581 -2.939216028
H -1.675194513 -4.868611000 -0.620578349
H -3.381828512 -2.670296057 -2.503772862
C -3.322463692 -0.077319751 2.094354041
H -2.989661549 0.489080396 4.031146251
H -5.021709562 -1.166059946 1.774320796
C -2.265966571 1.557162125 0.108386565
O -1.110188738 3.746930667 0.963179648
H 0.291313131 4.128486327 -0.122359937
H -3.350429768 1.763592839 -1.626360154
H 0.989642674 0.264175624 3.459559902

