13

C 3.998529333 -0.693342008 0.772819807
C 1.419883745 0.854665678 0.235670353
O 1.298732194 3.115235551 0.411858987
C 0.163137127 -1.364339705 0.018404175
C -4.521701598 0.210531629 -0.008565316
N -3.662965184 0.784015603 -2.169594431
H 5.317549135 0.130098932 -0.575797660
H 3.989050070 -2.743901306 0.568648108
H 4.487367201 -0.231598787 2.713341637
H 0.242443812 -2.409999285 -1.746112041
H -4.414746822 1.445584890 1.644668482
H -5.457979653 -1.606029818 0.244873716
H -2.839551721 2.527592293 -2.124190360

