17

C 4.123868536 2.031299757 -1.111280187
O 1.563175365 1.755162356 -1.731218089
C 0.716215480 -0.775136025 -1.551841374
C 0.055867599 -1.580978286 1.119354590
O -2.678798124 -1.601935047 0.731353849
C -2.005483982 -1.035637002 -2.418603548
C -4.030059375 0.465201685 1.813302671
H 4.520182220 1.513826471 0.862674546
H 5.334293582 0.871257115 -2.335314417
H 4.614317774 4.012968276 -1.375297055
H 2.094450965 -2.012920886 -2.487971879
H 0.569147658 -0.257498069 2.618058642
H 0.600038708 -3.499502968 1.625108720
H -2.301657129 -2.990218810 -3.049829370
H -3.138973742 2.246443489 1.282031909
H -5.925370982 0.386867529 1.026532282
H -4.081855748 0.220468357 3.861756644

