17

C 3.944687955 2.107903453 -1.084431261
O 1.328206951 1.765465426 -1.335998009
C 0.604034194 -0.806143030 -1.270239905
C 0.318570427 -1.942683299 1.378985404
O -2.388855858 -2.213549026 1.182677328
C -2.210780842 -1.149701286 -1.637045893
C -3.928718749 0.772456413 1.236484445
H 4.654906181 1.400433814 0.734046690
H 4.982469399 1.147219320 -2.603487436
H 4.320207131 4.128779821 -1.195774888
H 1.852708922 -1.880412156 -2.531347538
H 0.872245838 -0.715860551 2.945963465
H 1.130391724 -3.821384195 1.634270131
H -2.715315759 -2.723036518 -2.874145463
H -2.936615085 2.456212386 0.638200858
H -5.763631043 0.599781894 0.360920078
H -4.035152603 0.624179808 3.299743742

