11

C -3.891169947 -0.260809077 0.159944681
C -1.135027487 -0.387164821 0.657781161
O 0.065241812 0.608820133 -1.248054407
C 2.780697996 0.683840767 -1.192441940
O 3.810261493 1.605452621 -2.965937096
N 3.753087225 -0.321139661 0.902208013
H -4.429124293 0.678022017 -1.598764842
H -4.595099316 -2.205968938 0.186778111
H -4.781330352 0.650513387 1.786768554
H 2.530890413 -1.012345862 2.199376969
H 5.634609387 -0.349984138 1.104876378

