13

N 4.371245288 -1.486310812 1.340568217
C 4.474025187 0.731389924 1.620250291
C 2.202289566 0.250340429 -0.843608078
C -0.274592985 1.030124255 0.221355961
C -1.966455638 -0.930018810 1.360650487
C -2.625424341 0.188622786 -1.148356784
H 2.095788003 -1.555593255 -1.819375873
H 3.080444786 1.615692253 -2.097717527
H -0.304693166 2.889143615 1.072876039
H -3.075143480 -0.392774435 2.990578009
H -1.263734674 -2.851272388 1.403695142
H -2.400096667 -0.977523841 -2.814207111
H -4.175490241 1.516424146 -1.255214636

