13

C -2.891502295 1.012833091 0.413244043
C -0.568908380 -1.263113785 -1.059495474
C 1.910808363 -1.406517693 0.230711163
C 3.523327104 0.677130104 -0.136569657
O 2.908303907 2.611712469 -1.290533749
H -2.402004950 2.851451950 -0.345944848
H -3.054431836 1.067817941 2.477374314
H -4.596144977 0.208179638 -0.384950572
H -1.677298572 -2.980362377 -1.021033425
H -0.527303490 -0.242231784 -2.838390824
H -0.620261499 -0.083092883 0.961093126
H 2.393000405 -3.049019887 1.338142527
H 5.435215124 0.524679189 0.698625021

