16

C 2.577843437 -1.559030270 -0.100498734
C 0.377516144 0.295303401 -0.170088825
C 1.223338660 2.965136967 -0.786967128
N -1.831171770 -0.565742825 -1.695292865
C -3.373414261 -1.158050814 0.557991433
C -1.317449666 0.053556464 2.169339980
O -1.099103038 0.613415418 4.337965586
H 3.984819124 -0.960770002 1.282225115
H 3.489201390 -1.644059347 -1.952089883
H 1.952441089 -3.460297935 0.406377591
H 2.156708824 3.006104585 -2.627494233
H 2.547106796 3.650158529 0.638902268
H -0.393848858 4.238720421 -0.859526753
H -1.454874934 -2.081199128 -2.794078769
H -5.213251881 -0.225342168 0.610863229
H -3.625861054 -3.167903295 0.982372028

