14

C 4.162137890 1.168309778 -0.464581117
C 1.591885256 0.071640519 -0.605160754
C 0.261216483 -1.270847168 -2.232564622
C -0.317250510 -0.538536834 1.247231601
C -2.837691191 0.640372645 1.498007631
C -2.976701807 -1.292716893 -0.577362656
H 4.097781623 3.154631654 0.093042159
H 5.091693074 1.030908397 -2.297976302
H 5.314661595 0.169894126 0.928947543
H 0.036054274 -2.102554470 2.538617333
H -3.829132506 0.210200851 3.237217807
H -3.011978440 2.592608868 0.897922020
H -3.610534280 -3.161296208 -0.040130337
H -3.771223890 -0.663958430 -2.344111943

