15

C 1.386102585 3.171117965 -0.783413914
C 1.791622807 -2.660245587 0.958022151
O 1.617292114 -4.355002677 2.763803051
C -1.227159232 2.325936274 0.070305031
C -2.032719962 -0.287969941 -0.763301672
O -0.772300302 -1.469223285 -2.764692602
C -0.641001451 -2.702724344 -0.380709649
H 1.540210223 3.101101382 -2.837021812
H 1.727755695 5.112103080 -0.175465379
H 2.857493707 1.956094515 -0.011798864
H 3.173677561 -4.346100290 3.704617583
H -1.392266796 2.421444336 2.129709399
H -2.642303563 3.640872113 -0.667647818
H -4.075899615 -0.550086651 -0.805946460
H -1.782107582 -4.415927201 -0.247274764

