13

O 2.803718621 -0.062027407 3.782302844
C 1.531203410 -0.006849728 1.900043632
C 2.699416718 -0.562174984 -0.661632063
O 1.058040215 -1.658774682 -2.467029821
C -1.333302484 -0.740423363 -2.510881483
C -1.216659253 0.768595910 1.912665548
C -2.459190009 0.439555304 -0.609197549
H 4.292465403 -1.838475316 -0.417926406
H 3.407132248 1.249328347 -1.391960301
H -2.252365210 -1.120735942 -4.299138612
H -1.291731117 2.731039395 2.565322962
H -2.163352931 -0.341104031 3.377651405
H -4.375732897 1.100327013 -0.871644887

