13

O 1.961495202 3.253552429 1.766052526
C 1.129815490 1.466135227 0.637671772
C 2.629147895 -0.695879778 -0.511266329
O 1.029720723 -1.703402757 -2.427653144
C -1.170316630 -0.567158570 -2.269631468
C -1.979637744 -0.451601779 2.185281577
C -1.700562007 1.059399778 -0.166027085
H 3.012434015 -2.142979869 0.900117844
H 4.371382653 -0.079500854 -1.418235923
H -2.381873206 -0.911411565 -3.888077675
H -1.261010577 0.306086877 3.936494273
H -2.451669617 -2.436117436 2.070376421
H -2.860501244 2.729528011 -0.536755560

