11

C -0.666555424 -4.439118979 -2.485666338
C -0.470542901 -1.711219836 -1.681656885
N 0.762463050 -0.792337843 0.140040101
C 2.231288547 -2.422895513 1.767716713
H 1.819349473 -1.935184072 3.728781303
H 1.914288067 -4.452122184 1.514770106
H 4.235630699 -2.028747512 1.462615007
H -1.537138360 -0.357207484 -2.816208161
H -1.744077449 -5.540178412 -1.109510478
H -1.631863697 -4.579335996 -4.297820774
H 1.189285512 -5.319055946 -2.670169899

