18

C -1.765044187 -2.968110318 -0.774813563
C -0.465575756 -0.610118715 -1.569605253
C -2.205865003 2.406894843 0.774128518
N 1.922024114 -0.023806581 -1.063632387
C 3.254490036 -1.353916278 0.922412795
C 1.221360400 2.792734588 -0.461213172
O 1.376824105 4.361041504 -2.126225651
H -1.253455508 -3.548687153 1.131661488
H -3.806095536 -2.736269420 -0.898116888
H -1.219493615 -4.477357681 -2.080471395
H -1.230654338 0.384099912 -3.190297078
H -2.205477930 4.389919732 1.324229418
H -3.806980551 2.160037954 -0.502382008
H -2.463430970 1.258692960 2.473518271
H 2.257386969 -1.332220578 2.741285112
H 3.562666251 -3.316504422 0.372816206
H 5.093619537 -0.462491628 1.172345553
H 1.900018669 2.976776905 1.494040774

