16

N 4.047119123 6.198807417 0.082937188
C 2.829366778 4.469967813 -0.438076442
C 1.555295510 -3.245651824 -0.110639666
C -1.137566996 -2.548043797 0.637190629
C -2.164069968 -0.129997114 -0.561974786
C -0.904040764 2.297722001 0.253132669
O 1.518180400 2.528112308 -1.051904728
H 2.927855939 -1.861858031 0.556957545
H 1.749017344 -3.366533201 -2.162485716
H 2.075829471 -5.077135777 0.680682147
H -1.268096086 -2.380038358 2.696232227
H -2.405951662 -4.093501298 0.115758160
H -2.081275435 -0.247856762 -2.625042219
H -4.163359560 0.064541971 -0.072979900
H -0.533368585 2.339588657 2.284606659
H -2.030242852 3.946537430 -0.263083306

