11

O -4.500281949 0.381267855 0.366685424
C -2.281733557 -0.056543213 0.000473187
C -0.116184406 1.752073938 -0.401062452
C 2.167423665 0.031374102 -0.021580105
C -1.416667148 -2.624505499 -0.274986010
H -0.211943178 2.511661203 -2.316282456
H -0.200302957 3.334553404 0.911781914
H 2.811201483 -0.049526264 1.928512867
H 3.755446302 0.410127072 -1.274202264
H -1.238497003 -3.672230549 1.502680753
H 1.601480964 -1.961913625 -0.615842488

