12

O 3.976098265 0.001007413 -1.082808836
C 1.602025035 0.315638347 -0.367616662
C -0.088124449 -1.918009126 -0.269340397
C -2.565713908 -0.690100296 0.613011092
C -2.153625225 2.103026126 0.970800687
C 0.407585145 2.504447324 0.330971320
H 0.668412098 -3.330111414 1.034780200
H -0.196562074 -2.817880247 -2.125421497
H -4.110368087 -0.956871081 -0.735023999
H -3.269309589 -1.485803269 2.386422552
H 4.850235568 1.597571461 -1.063266631
H 1.350393602 4.328018332 0.374855220

