13

N 3.305572148 0.707184875 1.028045367
C 4.347081625 0.765598200 2.966639393
C 2.028542269 0.653739377 -1.287150308
C -0.067758927 -1.104823352 -1.757369669
C -1.541580331 -1.661729005 0.636402028
C -1.878938094 1.221752291 0.864858993
N -0.501920424 1.706225592 -1.559593030
H 3.247982235 1.130207533 -2.858043334
H -0.214592348 -2.109278247 -3.535202275
H -3.307132873 -2.649019669 0.273559248
H -0.509079651 -2.631749348 2.132670714
H -3.824643368 1.847678584 0.654638130
H -1.033919354 2.151052968 2.498298571

