10

N 3.838797171 -0.498169998 -0.259653566
C 1.483539415 -0.571435228 0.018653978
C -0.355538005 1.553773449 -0.471870396
N -2.625498815 0.383213876 0.490168897
N -2.247212494 -2.059806975 1.013216856
N 0.026691663 -2.690025611 0.860991688
H 0.156456530 3.260596232 0.558874218
H 4.601719499 -2.199380332 0.219197875
H -0.480780322 1.983427798 -2.488395348
H -4.401156611 0.862084120 0.024876336

