13

O -3.096354428 -0.122494202 0.974277821
C -0.636501578 -0.947045942 1.546893901
C 0.701278763 -2.468843788 -0.510813229
O 2.262632338 -0.362619508 -1.168486543
C 1.322061127 1.136037357 0.902110163
N 0.486921063 3.552365675 0.140971887
H -1.294838451 3.520983844 -0.544304638
H -0.527441950 -1.707727698 3.466043326
H -4.226685662 -1.535967996 1.034461327
H 1.803750389 -4.080915855 0.172332913
H -0.503442315 -3.061536791 -2.083032030
H 2.780331881 1.354691406 2.353017485
H 0.654718822 4.865965138 1.507154094

