13

O -3.080868916 0.608000634 0.467367708
C -1.157933708 -1.046326596 1.396493036
C 0.543626301 -2.362934390 -0.494718167
O 2.332489277 -0.442061856 -1.127177338
C 1.758708748 1.245616962 0.784943137
N 0.525912916 3.341658491 0.167503680
H -1.390905796 2.755850989 -0.332461048
H -0.882430782 -1.218213817 3.429752685
H -3.277520563 -1.796844593 1.166241171
H 1.488556751 -3.995468827 0.356733635
H -0.456945509 -2.953037296 -2.200243786
H 3.056788892 1.282656955 2.379413595
H 0.476984127 4.609260281 1.596535268

