10

N 3.432975726 -0.210882683 -0.193337596
C 1.063348304 -0.821642166 -0.020725533
C -0.548470161 1.231443771 -0.766331073
C -2.805629115 0.498369723 0.606414096
N -2.655611279 -1.672898401 1.690132514
O -0.129603011 -2.620212873 1.217930377
H 4.863002028 -1.456653091 0.022996833
H 2.110766029 1.991771846 -0.510264661
H -0.738600779 1.633387648 -2.771387599
H -4.601664187 1.467006126 0.740845074

