10

C -5.536468010 -1.086947582 -0.232753183
C -3.437067494 -0.335598107 -2.064297437
C -0.860809065 -0.761775851 -0.944527334
O 0.811310164 -1.929559340 -1.934621803
H -0.568858756 0.100406497 0.951642209
H -3.556579254 -1.365715407 -3.845196369
H -3.581090457 1.687063712 -2.488935073
H -7.386795745 -0.636115564 -1.017543762
H -5.489870406 -3.110691874 0.161363204
H -5.359779638 -0.086145943 1.564155680

