11

O -1.113878636 4.227731606 -2.078074183
C -0.041701418 2.019337413 -2.318098370
C -0.830269522 0.465279182 -0.085124641
N 0.545998853 -1.874825407 0.048178889
C 1.375196031 -2.950935051 2.212255377
O 2.554077069 -4.899925576 2.337290712
H -0.682535420 5.243128999 -3.526076599
H 0.853735650 -1.842137133 3.908044200
H -0.597200585 1.530763879 1.674474433
H -2.876301527 0.152874422 -0.319245947
H 1.040531014 -2.716760398 -1.587854678

