12

O 1.033560060 -3.155817117 2.771921371
C 0.865006260 -1.640080208 1.161057746
C 2.611993962 0.598211362 0.393168859
C 4.726169189 1.529858832 0.592648216
C -1.194904423 -0.859267936 -0.876488633
C -3.708914499 -0.156016223 -0.415759533
N -0.007158056 1.625747523 -1.336808229
H 6.537595929 2.404253270 0.687071594
H -0.964449941 -2.092355429 -2.514325017
H -4.162402376 1.011151896 1.204614120
H -5.260044107 -0.780267539 -1.593165961
H -0.669139794 2.882148019 -0.034486538

