15

C -3.609238457 -0.436247225 -0.143817267
C -1.257993497 1.120135633 0.178853847
O -0.163217819 0.994801948 2.710780567
C 2.253238623 0.591382270 1.718154677
C 2.335040823 -2.142034193 -0.227660201
C 1.264665213 0.258410996 -0.973389007
O 2.106282937 1.535146154 -3.081111330
H -3.249602524 -2.428672595 0.240884353
H -5.081847601 0.217906285 1.142472196
H -4.305713290 -0.245663338 -2.076338205
H -1.593138844 3.106338304 -0.279466986
H 3.759655932 1.934280745 2.094349449
H 3.340259734 -1.358904229 2.144764224
H 0.962452992 -3.349225842 0.738124435
H 3.350320825 0.470546378 -3.869204224

