13

N 3.010646447 1.561661638 1.715772753
C 2.116413116 0.040777304 -0.023306521
C 0.151856653 -1.947100156 0.896442307
C -2.267746712 -0.937333959 -0.417133194
C -1.328376271 1.674507541 -0.667060094
O 2.413867989 0.080749037 -2.417350093
H 4.227518370 2.785676820 0.854140354
H 0.651085634 -3.822255774 0.224069759
H -0.032648515 -1.892277916 2.940235063
H -3.952153261 -1.049083064 0.763552855
H -2.579317650 -1.812854126 -2.246306257
H -1.357360229 2.867909745 0.992253368
H -1.020329880 2.578591050 -2.471496453

