15

O 2.922060603 -0.479902658 -1.376719887
C 2.078898991 0.811496680 1.232653706
C -0.060672662 2.485504313 0.239927282
C -1.569514452 -0.027915620 0.339729180
O -4.174896546 -0.139964644 0.795233565
C -0.615003260 -1.561730632 -1.822137235
C 0.250473730 -0.893172080 2.303952787
H 3.706493854 -2.045889104 -0.866588981
H 3.831060348 1.479007512 2.067975921
H -0.721181642 3.814274686 1.656486999
H 0.196401107 3.400202622 -1.593937348
H -5.055815471 0.398190428 -0.699610589
H -0.838722248 -3.591772247 -1.638666863
H -0.366701279 -0.867368758 -3.734021551
H 0.520524759 -2.755951881 3.115336481

