9

C -4.131267418 -0.087140223 0.194777095
C -2.171305276 1.883827250 0.704830428
C -1.220964087 2.414624144 2.957412484
H 0.197186118 3.869030956 3.209436489
H -1.831129629 1.410973762 4.638907533
H -1.502885373 2.940948756 -0.926357277
H -5.820204586 0.754132060 -0.646109664
H -4.687781198 -1.061862318 1.923867523
H -3.432752021 -1.493381789 -1.147436279

