8

O -0.946179937 1.923204135 -1.484420670
C -0.980770542 -0.664788265 -1.029620265
C 1.625758181 -1.724333288 -0.656645775
O 3.480228158 -0.416442782 -0.757449512
H 1.757811015 -3.776961552 -0.282773628
H -2.094301544 -1.120126505 0.664931941
H -1.859503338 -1.696572474 -2.605161015
H 0.806846915 2.433818111 -1.453147290

