10

O -1.380456291 2.141344122 -0.836981773
C -1.381928086 -0.425204290 -0.797357372
C 1.162222763 -1.085350197 0.270789439
O 2.914255316 0.373974740 -0.562919385
H -0.586377368 1.904903158 1.865566014
H -2.909315326 -1.333243903 0.272060072
H -1.361863503 -1.253939392 -2.715760468
H 0.127301211 0.815557494 2.895852520
H 1.779652167 -2.889403622 1.040057506
H 1.842358873 1.859454224 -1.156710450

