13

C 2.846402545 -1.395778380 -0.214119822
C 0.192378485 -0.459405252 -0.030028032
C -1.405650271 3.033907086 -0.267377123
N -0.662177363 1.276015002 -1.899774630
C -1.683868658 -1.607442521 1.543839536
O -3.880816932 -0.961937607 1.851584762
H 3.259189142 -2.103299022 -2.116302038
H 4.217950724 0.099624887 0.181263267
H 3.184835940 -2.913873213 1.139318432
H -3.337576626 3.720816995 -0.188212943
H 0.028073148 3.923879916 0.880931681
H -1.798567891 0.714298957 -3.325872456
H -0.985383080 -3.359261006 2.464279684

