13

C 2.451371078 -0.840907471 1.088757656
C 2.197232980 1.264949012 -0.735953801
C 0.965822241 -1.249335981 -1.288310845
C -1.816750174 -0.671418426 -1.099367902
N -2.811660724 0.014726938 1.352612670
C -1.807276580 1.932128291 -0.130524952
H 4.318944246 -1.683663679 1.107712724
H 1.568010702 -0.843640922 2.940279604
H 0.800220288 2.928029662 -0.304059031
H 1.657055920 -2.499041763 -2.751627186
H -3.162458805 -1.436873989 -2.435743704
H -1.900974417 -0.554012255 2.941011854
H -2.754779987 3.668746291 -0.646433185

