14

C -0.960252217 2.619215305 0.203713062
N -0.921473412 0.081605555 -0.832410053
C -1.965762335 -1.764580543 0.904370219
C 1.530036448 -0.632078523 -1.779910228
C 3.522788041 -0.794766916 0.187843747
N 5.000508195 -0.898929489 1.771243169
H -2.900351013 3.124389951 0.680592479
H -0.279714691 3.962183417 -1.205910887
H 0.204611986 2.815191715 1.917190043
H -0.895427222 -1.902638434 2.683764098
H -1.992462729 -3.624302144 0.013174793
H -3.908187914 -1.246519684 1.357644614
H 2.153367278 0.733572142 -3.195392064
H 1.412319606 -2.472342351 -2.705912992

