15

C -2.506319627 -1.108925059 -1.202434056
O -1.620553687 -3.463524869 -0.307645618
C 0.269452628 -2.663573829 1.398414151
C 2.538028967 -1.603266264 0.145720145
C 2.795716481 0.841544705 -0.364911973
C 0.545837168 2.479131438 0.213987333
C -1.563888378 0.682997685 0.895021403
H -1.693528163 -0.600702777 -3.040093917
H -4.560214348 -1.181708598 -1.381870751
H -0.802458517 -0.840572781 2.615090411
H 4.043330393 -2.955603090 -0.189498183
H 4.525900172 1.651110652 -1.103309757
H 0.923575146 3.786804644 1.770605821
H 0.024097466 3.648302308 -1.417986951
H -3.055858012 1.503766269 2.059501633

