14

C 2.814566896 1.622700774 -0.986548096
N 1.416195755 -0.693381484 -1.525470113
C -0.006355980 -1.780181177 0.394301882
N 0.271928263 -4.070857976 1.009228873
C -2.116595210 -0.178717617 1.542701506
O -2.851850928 -0.540955892 3.676611936
N -3.122234813 1.555442795 -0.045988621
H 4.369970441 1.314615550 0.342805182
H 1.557475384 3.042382886 -0.185526810
H 3.581628197 2.372035519 -2.744435777
H 2.530094347 -2.042049861 -2.294528704
H -1.032924810 -4.543013324 2.340820645
H -2.609752955 1.575971721 -1.873565546
H -4.664876773 2.507474911 0.517699902

