14

C    -2.14313   0.41379   0.02637
N    -0.85585   0.56225   0.70176
C     0.51059  -1.84775   0.21940
C     1.58692  -1.47140  -0.40062
C     1.09379   1.33578  -0.57330
N     0.07561   0.99822   0.03310
H    -2.67913   1.33884   0.17540
H    -2.06910   0.17438  -1.04079
H    -2.70118  -0.40455   0.53546
H     0.42462  -1.84749   1.31688
H    -0.43810  -2.05816  -0.31656
H     2.47496  -1.04898   0.13268
H     1.61686  -1.27198  -1.50085
H     1.81581   1.95632  -0.73900
14

C    -2.14122   0.41055   0.02831
N    -0.84979   0.54684   0.69643
C     0.50225  -1.83085   0.22095
C     1.58183  -1.44506  -0.40163
C     1.09863   1.30702  -0.56943
N     0.07419   1.00604   0.03218
H    -2.67645   1.33884   0.17755
H    -2.07063   0.17447  -1.04057
H    -2.70152  -0.40486   0.53600
H     0.42457  -1.84700   1.31662
H    -0.43773  -2.05839  -0.31683
H     2.47462  -1.04821   0.13265
H     1.61723  -1.27176  -1.50063
H     1.82036   1.94476  -0.74018
14

C    -2.13930   0.40731   0.03026
N    -0.84373   0.53144   0.69109
C     0.49392  -1.81394   0.22250
C     1.57675  -1.41872  -0.40264
C     1.10347   1.27826  -0.56556
N     0.07277   1.01385   0.03125
H    -2.67377   1.33885   0.17969
H    -2.07216   0.17457  -1.04034
H    -2.70187  -0.40516   0.53654
H     0.42451  -1.84651   1.31636
H    -0.43735  -2.05862  -0.31711
H     2.47429  -1.04744   0.13262
H     1.61760  -1.27154  -1.50041
H     1.82491   1.93319  -0.74135
14

C    -2.13739   0.40407   0.03220
N    -0.83768   0.51603   0.68576
C     0.48558  -1.79704   0.22405
C     1.57167  -1.39238  -0.40364
C     1.10831   1.24951  -0.56169
N     0.07136   1.02167   0.03033
H    -2.67109   1.33885   0.18184
H    -2.07370   0.17466  -1.04011
H    -2.70221  -0.40547   0.53708
H     0.42445  -1.84602   1.31610
H    -0.43698  -2.05885  -0.31739
H     2.47395  -1.04667   0.13259
H     1.61797  -1.27132  -1.50018
H     1.82946   1.92163  -0.74253
14

C    -2.13548   0.40083   0.03414
N    -0.83162   0.50063   0.68042
C     0.47725  -1.78014   0.22560
C     1.56659  -1.36604  -0.40465
C     1.11315   1.22075  -0.55782
N     0.06994   1.02948   0.02941
H    -2.66840   1.33885   0.18398
H    -2.07523   0.17476  -1.03988
H    -2.70255  -0.40577   0.53762
H     0.42440  -1.84553   1.31584
H    -0.43661  -2.05908  -0.31767
H     2.47362  -1.04590   0.13256
H     1.61834  -1.27110  -1.49996
H     1.83401   1.91006  -0.74371
14

C    -2.13357   0.39760   0.03608
N    -0.82556   0.48522   0.67508
C     0.46891  -1.76324   0.22715
C     1.56151  -1.33970  -0.40565
C     1.11799   1.19199  -0.55395
N     0.06852   1.03730   0.02848
H    -2.66572   1.33885   0.18613
H    -2.07676   0.17485  -1.03966
H    -2.70289  -0.40608   0.53815
H     0.42434  -1.84504   1.31558
H    -0.43623  -2.05931  -0.31795
H     2.47329  -1.04513   0.13253
H     1.61871  -1.27087  -1.49974
H     1.83856   1.89850  -0.74489
14

C    -2.13166   0.39436   0.03803
N    -0.81950   0.46981   0.66975
C     0.46058  -1.74634   0.22870
C     1.55643  -1.31336  -0.40666
C     1.12283   1.16323  -0.55008
N     0.06710   1.04512   0.02756
H    -2.66304   1.33885   0.18827
H    -2.07829   0.17495  -1.03943
H    -2.70324  -0.40638   0.53869
H     0.42428  -1.84455   1.31532
H    -0.43586  -2.05954  -0.31823
H     2.47295  -1.04436   0.13250
H     1.61908  -1.27065  -1.49952
H     1.84311   1.88693  -0.74606
14

C    -2.12975   0.39112   0.03997
N    -0.81344   0.45441   0.66441
C     0.45225  -1.72943   0.23025
C     1.55135  -1.28702  -0.40767
C     1.12767   1.13447  -0.54620
N     0.06568   1.05293   0.02664
H    -2.66036   1.33885   0.19042
H    -2.07982   0.17504  -1.03920
H    -2.70358  -0.40669   0.53923
H     0.42423  -1.84406   1.31506
H    -0.43549  -2.05977  -0.31851
H     2.47262  -1.04359   0.13247
H     1.61945  -1.27043  -1.49930
H     1.84765   1.87537  -0.74724
14

C    -2.12784   0.38788   0.04191
N    -0.80738   0.43900   0.65908
C     0.44391  -1.71253   0.23180
C     1.54627  -1.26068  -0.40867
C     1.13251   1.10571  -0.54233
N     0.06427   1.06075   0.02571
H    -2.65767   1.33885   0.19257
H    -2.08135   0.17514  -1.03897
H    -2.70392  -0.40699   0.53977
H     0.42417  -1.84357   1.31480
H    -0.43512  -2.06001  -0.31879
H     2.47228  -1.04282   0.13244
H     1.61982  -1.27021  -1.49908
H     1.85220   1.86380  -0.74842
14

C    -2.12593   0.38464   0.04385
N    -0.80133   0.42360   0.65374
C     0.43558  -1.69563   0.23335
C     1.54118  -1.23434  -0.40968
C     1.13735   1.07696  -0.53846
N     0.06285   1.06856   0.02479
H    -2.65499   1.33885   0.19471
H    -2.08288   0.17523  -1.03875
H    -2.70426  -0.40730   0.54031
H     0.42412  -1.84308   1.31454
H    -0.43474  -2.06024  -0.31906
H     2.47195  -1.04205   0.13241
H     1.62019  -1.26999  -1.49886
H     1.85675   1.85224  -0.74959
14

C    -2.12401   0.38140   0.04580
N    -0.79527   0.40819   0.64841
C     0.42724  -1.67873   0.23490
C     1.53610  -1.20800  -0.41069
C     1.14219   1.04820  -0.53459
N     0.06143   1.07638   0.02387
H    -2.65231   1.33885   0.19686
H    -2.08442   0.17533  -1.03852
H    -2.70461  -0.40760   0.54084
H     0.42406  -1.84259   1.31428
H    -0.43437  -2.06047  -0.31934
H     2.47162  -1.04128   0.13238
H     1.62056  -1.26976  -1.49864
H     1.86130   1.84068  -0.75077
14

C    -2.12210   0.37816   0.04774
N    -0.78921   0.39279   0.64307
C     0.41891  -1.66182   0.23644
C     1.53102  -1.18166  -0.41169
C     1.14702   1.01944  -0.53072
N     0.06001   1.08419   0.02294
H    -2.64963   1.33885   0.19900
H    -2.08595   0.17543  -1.03829
H    -2.70495  -0.40791   0.54138
H     0.42400  -1.84210   1.31402
H    -0.43400  -2.06070  -0.31962
H     2.47128  -1.04051   0.13235
H     1.62093  -1.26954  -1.49841
H     1.86585   1.82911  -0.75195
14

C    -2.12019   0.37492   0.04968
N    -0.78315   0.37738   0.63774
C     0.41058  -1.64492   0.23799
C     1.52594  -1.15532  -0.41270
C     1.15186   0.99068  -0.52685
N     0.05859   1.09201   0.02202
H    -2.64694   1.33885   0.20115
H    -2.08748   0.17552  -1.03806
H    -2.70529  -0.40821   0.54192
H     0.42395  -1.84161   1.31376
H    -0.43363  -2.06093  -0.31990
H     2.47095  -1.03974   0.13232
H     1.62130  -1.26932  -1.49819
H     1.87040   1.81755  -0.75313
14

C    -2.11828   0.37168   0.05162
N    -0.77709   0.36198   0.63240
C     0.40224  -1.62802   0.23954
C     1.52086  -1.12898  -0.41371
C     1.15670   0.96192  -0.52298
N     0.05718   1.09983   0.02110
H    -2.64426   1.33885   0.20329
H    -2.08901   0.17562  -1.03784
H    -2.70563  -0.40852   0.54246
H     0.42389  -1.84112   1.31350
H    -0.43325  -2.06116  -0.32018
H     2.47061  -1.03897   0.13229
H     1.62167  -1.26910  -1.49797
H     1.87495   1.80598  -0.75430
14

C    -2.11637   0.36844   0.05357
N    -0.77104   0.34657   0.62707
C     0.39391  -1.61112   0.24109
C     1.51578  -1.10264  -0.41471
C     1.16154   0.93317  -0.51911
N     0.05576   1.10764   0.02017
H    -2.64158   1.33885   0.20544
H    -2.09054   0.17571  -1.03761
H    -2.70598  -0.40882   0.54299
H     0.42383  -1.84063   1.31325
H    -0.43288  -2.06139  -0.32046
H     2.47028  -1.03820   0.13226
H     1.62204  -1.26888  -1.49775
H     1.87949   1.79442  -0.75548
14

C    -2.11446   0.36520   0.05551
N    -0.76498   0.33116   0.62173
C     0.38557  -1.59422   0.24264
C     1.51070  -1.07630  -0.41572
C     1.16638   0.90441  -0.51524
N     0.05434   1.11546   0.01925
H    -2.63890   1.33885   0.20759
H    -2.09207   0.17581  -1.03738
H    -2.70632  -0.40913   0.54353
H     0.42378  -1.84014   1.31299
H    -0.43251  -2.06162  -0.32074
H     2.46995  -1.03743   0.13223
H     1.62241  -1.26865  -1.49753
H     1.88404   1.78285  -0.75666
14

C    -2.11255   0.36197   0.05745
N    -0.75892   0.31576   0.61639
C     0.37724  -1.57731   0.24419
C     1.50561  -1.04996  -0.41673
C     1.17122   0.87565  -0.51136
N     0.05292   1.12327   0.01833
H    -2.63621   1.33886   0.20973
H    -2.09361   0.17590  -1.03715
H    -2.70666  -0.40943   0.54407
H     0.42372  -1.83966   1.31273
H    -0.43214  -2.06185  -0.32102
H     2.46961  -1.03666   0.13220
H     1.62278  -1.26843  -1.49731
H     1.88859   1.77129  -0.75783
14

C    -2.11064   0.35873   0.05939
N    -0.75286   0.30035   0.61106
C     0.36890  -1.56041   0.24574
C     1.50053  -1.02362  -0.41773
C     1.17606   0.84689  -0.50749
N     0.05150   1.13109   0.01740
H    -2.63353   1.33886   0.21188
H    -2.09514   0.17600  -1.03693
H    -2.70700  -0.40974   0.54461
H     0.42366  -1.83917   1.31247
H    -0.43176  -2.06209  -0.32129
H     2.46928  -1.03589   0.13217
H     1.62315  -1.26821  -1.49709
H     1.89314   1.75972  -0.75901
14

C    -2.10872   0.35549   0.06134
N    -0.74680   0.28495   0.60572
C     0.36057  -1.54351   0.24729
C     1.49545  -0.99728  -0.41874
C     1.18090   0.81813  -0.50362
N     0.05009   1.13891   0.01648
H    -2.63085   1.33886   0.21402
H    -2.09667   0.17609  -1.03670
H    -2.70735  -0.41004   0.54515
H     0.42361  -1.83868   1.31221
H    -0.43139  -2.06232  -0.32157
H     2.46895  -1.03512   0.13214
H     1.62352  -1.26799  -1.49687
H     1.89769   1.74816  -0.76019
14

C    -2.10681   0.35225   0.06328
N    -0.74075   0.26954   0.60039
C     0.35224  -1.52661   0.24884
C     1.49037  -0.97094  -0.41975
C     1.18574   0.78937  -0.49975
N     0.04867   1.14672   0.01556
H    -2.62816   1.33886   0.21617
H    -2.09820   0.17619  -1.03647
H    -2.70769  -0.41035   0.54568
H     0.42355  -1.83819   1.31195
H    -0.43102  -2.06255  -0.32185
H     2.46861  -1.03435   0.13211
H     1.62389  -1.26777  -1.49665
H     1.90224   1.73660  -0.76136
14

C    -2.10490   0.34901   0.06522
N    -0.73469   0.25414   0.59505
C     0.34390  -1.50971   0.25039
C     1.48529  -0.94460  -0.42075
C     1.19058   0.76062  -0.49588
N     0.04725   1.15454   0.01464
H    -2.62548   1.33886   0.21831
H    -2.09973   0.17628  -1.03624
H    -2.70803  -0.41065   0.54622
H     0.42349  -1.83770   1.31169
H    -0.43064  -2.06278  -0.32213
H     2.46828  -1.03358   0.13208
H     1.62426  -1.26754  -1.49642
H     1.90679   1.72503  -0.76254
14

C    -2.10681   0.35225   0.06328
N    -0.74075   0.26954   0.60039
C     0.35224  -1.52661   0.24884
C     1.49037  -0.97094  -0.41975
C     1.18574   0.78937  -0.49975
N     0.04867   1.14672   0.01556
H    -2.62816   1.33886   0.21617
H    -2.09820   0.17619  -1.03647
H    -2.70769  -0.41035   0.54568
H     0.42355  -1.83819   1.31195
H    -0.43102  -2.06255  -0.32185
H     2.46861  -1.03435   0.13211
H     1.62389  -1.26777  -1.49665
H     1.90224   1.73660  -0.76136
14

C    -2.10872   0.35549   0.06134
N    -0.74680   0.28495   0.60572
C     0.36057  -1.54351   0.24729
C     1.49545  -0.99728  -0.41874
C     1.18090   0.81813  -0.50362
N     0.05009   1.13891   0.01648
H    -2.63085   1.33886   0.21402
H    -2.09667   0.17609  -1.03670
H    -2.70735  -0.41004   0.54515
H     0.42361  -1.83868   1.31221
H    -0.43139  -2.06232  -0.32157
H     2.46895  -1.03512   0.13214
H     1.62352  -1.26799  -1.49687
H     1.89769   1.74816  -0.76019
14

C    -2.11064   0.35873   0.05939
N    -0.75286   0.30035   0.61106
C     0.36890  -1.56041   0.24574
C     1.50053  -1.02362  -0.41773
C     1.17606   0.84689  -0.50749
N     0.05150   1.13109   0.01740
H    -2.63353   1.33886   0.21188
H    -2.09514   0.17600  -1.03693
H    -2.70700  -0.40974   0.54461
H     0.42366  -1.83917   1.31247
H    -0.43176  -2.06209  -0.32129
H     2.46928  -1.03589   0.13217
H     1.62315  -1.26821  -1.49709
H     1.89314   1.75972  -0.75901
14

C    -2.11255   0.36197   0.05745
N    -0.75892   0.31576   0.61639
C     0.37724  -1.57731   0.24419
C     1.50561  -1.04996  -0.41673
C     1.17122   0.87565  -0.51136
N     0.05292   1.12327   0.01833
H    -2.63621   1.33886   0.20973
H    -2.09361   0.17590  -1.03715
H    -2.70666  -0.40943   0.54407
H     0.42372  -1.83966   1.31273
H    -0.43214  -2.06185  -0.32102
H     2.46961  -1.03666   0.13220
H     1.62278  -1.26843  -1.49731
H     1.88859   1.77129  -0.75783
14

C    -2.11446   0.36520   0.05551
N    -0.76498   0.33116   0.62173
C     0.38557  -1.59422   0.24264
C     1.51070  -1.07630  -0.41572
C     1.16638   0.90441  -0.51524
N     0.05434   1.11546   0.01925
H    -2.63890   1.33885   0.20759
H    -2.09207   0.17581  -1.03738
H    -2.70632  -0.40913   0.54353
H     0.42378  -1.84014   1.31299
H    -0.43251  -2.06162  -0.32074
H     2.46995  -1.03743   0.13223
H     1.62241  -1.26865  -1.49753
H     1.88404   1.78285  -0.75666
14

C    -2.11637   0.36844   0.05357
N    -0.77104   0.34657   0.62707
C     0.39391  -1.61112   0.24109
C     1.51578  -1.10264  -0.41471
C     1.16154   0.93317  -0.51911
N     0.05576   1.10764   0.02017
H    -2.64158   1.33885   0.20544
H    -2.09054   0.17571  -1.03761
H    -2.70598  -0.40882   0.54299
H     0.42383  -1.84063   1.31325
H    -0.43288  -2.06139  -0.32046
H     2.47028  -1.03820   0.13226
H     1.62204  -1.26888  -1.49775
H     1.87949   1.79442  -0.75548
14

C    -2.11828   0.37168   0.05162
N    -0.77709   0.36198   0.63240
C     0.40224  -1.62802   0.23954
C     1.52086  -1.12898  -0.41371
C     1.15670   0.96192  -0.52298
N     0.05718   1.09983   0.02110
H    -2.64426   1.33885   0.20329
H    -2.08901   0.17562  -1.03784
H    -2.70563  -0.40852   0.54246
H     0.42389  -1.84112   1.31350
H    -0.43325  -2.06116  -0.32018
H     2.47061  -1.03897   0.13229
H     1.62167  -1.26910  -1.49797
H     1.87495   1.80598  -0.75430
14

C    -2.12019   0.37492   0.04968
N    -0.78315   0.37738   0.63774
C     0.41058  -1.64492   0.23799
C     1.52594  -1.15532  -0.41270
C     1.15186   0.99068  -0.52685
N     0.05859   1.09201   0.02202
H    -2.64694   1.33885   0.20115
H    -2.08748   0.17552  -1.03806
H    -2.70529  -0.40821   0.54192
H     0.42395  -1.84161   1.31376
H    -0.43363  -2.06093  -0.31990
H     2.47095  -1.03974   0.13232
H     1.62130  -1.26932  -1.49819
H     1.87040   1.81755  -0.75313
14

C    -2.12210   0.37816   0.04774
N    -0.78921   0.39279   0.64307
C     0.41891  -1.66182   0.23644
C     1.53102  -1.18166  -0.41169
C     1.14702   1.01944  -0.53072
N     0.06001   1.08419   0.02294
H    -2.64963   1.33885   0.19900
H    -2.08595   0.17543  -1.03829
H    -2.70495  -0.40791   0.54138
H     0.42400  -1.84210   1.31402
H    -0.43400  -2.06070  -0.31962
H     2.47128  -1.04051   0.13235
H     1.62093  -1.26954  -1.49841
H     1.86585   1.82911  -0.75195
14

C    -2.12401   0.38140   0.04580
N    -0.79527   0.40819   0.64841
C     0.42724  -1.67873   0.23490
C     1.53610  -1.20800  -0.41069
C     1.14219   1.04820  -0.53459
N     0.06143   1.07638   0.02387
H    -2.65231   1.33885   0.19686
H    -2.08442   0.17533  -1.03852
H    -2.70461  -0.40760   0.54084
H     0.42406  -1.84259   1.31428
H    -0.43437  -2.06047  -0.31934
H     2.47162  -1.04128   0.13238
H     1.62056  -1.26976  -1.49864
H     1.86130   1.84068  -0.75077
14

C    -2.12593   0.38464   0.04385
N    -0.80133   0.42360   0.65374
C     0.43558  -1.69563   0.23335
C     1.54118  -1.23434  -0.40968
C     1.13735   1.07696  -0.53846
N     0.06285   1.06856   0.02479
H    -2.65499   1.33885   0.19471
H    -2.08288   0.17523  -1.03875
H    -2.70426  -0.40730   0.54031
H     0.42412  -1.84308   1.31454
H    -0.43474  -2.06024  -0.31906
H     2.47195  -1.04205   0.13241
H     1.62019  -1.26999  -1.49886
H     1.85675   1.85224  -0.74959
14

C    -2.12784   0.38788   0.04191
N    -0.80738   0.43900   0.65908
C     0.44391  -1.71253   0.23180
C     1.54627  -1.26068  -0.40867
C     1.13251   1.10571  -0.54233
N     0.06427   1.06075   0.02571
H    -2.65767   1.33885   0.19257
H    -2.08135   0.17514  -1.03897
H    -2.70392  -0.40699   0.53977
H     0.42417  -1.84357   1.31480
H    -0.43512  -2.06001  -0.31879
H     2.47228  -1.04282   0.13244
H     1.61982  -1.27021  -1.49908
H     1.85220   1.86380  -0.74842
14

C    -2.12975   0.39112   0.03997
N    -0.81344   0.45441   0.66441
C     0.45225  -1.72943   0.23025
C     1.55135  -1.28702  -0.40767
C     1.12767   1.13447  -0.54620
N     0.06568   1.05293   0.02664
H    -2.66036   1.33885   0.19042
H    -2.07982   0.17504  -1.03920
H    -2.70358  -0.40669   0.53923
H     0.42423  -1.84406   1.31506
H    -0.43549  -2.05977  -0.31851
H     2.47262  -1.04359   0.13247
H     1.61945  -1.27043  -1.49930
H     1.84765   1.87537  -0.74724
14

C    -2.13166   0.39436   0.03803
N    -0.81950   0.46981   0.66975
C     0.46058  -1.74634   0.22870
C     1.55643  -1.31336  -0.40666
C     1.12283   1.16323  -0.55008
N     0.06710   1.04512   0.02756
H    -2.66304   1.33885   0.18827
H    -2.07829   0.17495  -1.03943
H    -2.70324  -0.40638   0.53869
H     0.42428  -1.84455   1.31532
H    -0.43586  -2.05954  -0.31823
H     2.47295  -1.04436   0.13250
H     1.61908  -1.27065  -1.49952
H     1.84311   1.88693  -0.74606
14

C    -2.13357   0.39760   0.03608
N    -0.82556   0.48522   0.67508
C     0.46891  -1.76324   0.22715
C     1.56151  -1.33970  -0.40565
C     1.11799   1.19199  -0.55395
N     0.06852   1.03730   0.02848
H    -2.66572   1.33885   0.18613
H    -2.07676   0.17485  -1.03966
H    -2.70289  -0.40608   0.53815
H     0.42434  -1.84504   1.31558
H    -0.43623  -2.05931  -0.31795
H     2.47329  -1.04513   0.13253
H     1.61871  -1.27087  -1.49974
H     1.83856   1.89850  -0.74489
14

C    -2.13548   0.40083   0.03414
N    -0.83162   0.50063   0.68042
C     0.47725  -1.78014   0.22560
C     1.56659  -1.36604  -0.40465
C     1.11315   1.22075  -0.55782
N     0.06994   1.02948   0.02941
H    -2.66840   1.33885   0.18398
H    -2.07523   0.17476  -1.03988
H    -2.70255  -0.40577   0.53762
H     0.42440  -1.84553   1.31584
H    -0.43661  -2.05908  -0.31767
H     2.47362  -1.04590   0.13256
H     1.61834  -1.27110  -1.49996
H     1.83401   1.91006  -0.74371
14

C    -2.13739   0.40407   0.03220
N    -0.83768   0.51603   0.68576
C     0.48558  -1.79704   0.22405
C     1.57167  -1.39238  -0.40364
C     1.10831   1.24951  -0.56169
N     0.07136   1.02167   0.03033
H    -2.67109   1.33885   0.18184
H    -2.07370   0.17466  -1.04011
H    -2.70221  -0.40547   0.53708
H     0.42445  -1.84602   1.31610
H    -0.43698  -2.05885  -0.31739
H     2.47395  -1.04667   0.13259
H     1.61797  -1.27132  -1.50018
H     1.82946   1.92163  -0.74253
14

C    -2.13930   0.40731   0.03026
N    -0.84373   0.53144   0.69109
C     0.49392  -1.81394   0.22250
C     1.57675  -1.41872  -0.40264
C     1.10347   1.27826  -0.56556
N     0.07277   1.01385   0.03125
H    -2.67377   1.33885   0.17969
H    -2.07216   0.17457  -1.04034
H    -2.70187  -0.40516   0.53654
H     0.42451  -1.84651   1.31636
H    -0.43735  -2.05862  -0.31711
H     2.47429  -1.04744   0.13262
H     1.61760  -1.27154  -1.50041
H     1.82491   1.93319  -0.74135
14

C    -2.14122   0.41055   0.02831
N    -0.84979   0.54684   0.69643
C     0.50225  -1.83085   0.22095
C     1.58183  -1.44506  -0.40163
C     1.09863   1.30702  -0.56943
N     0.07419   1.00604   0.03218
H    -2.67645   1.33884   0.17755
H    -2.07063   0.17447  -1.04057
H    -2.70152  -0.40486   0.53600
H     0.42457  -1.84700   1.31662
H    -0.43773  -2.05839  -0.31683
H     2.47462  -1.04821   0.13265
H     1.61723  -1.27176  -1.50063
H     1.82036   1.94476  -0.74018
