29

C     1.79060   2.67412  -1.73497
N     0.36631   2.71245  -2.08146
N    -0.14152   1.58754  -2.42511
N     0.29786   0.39435  -2.59524
C     0.02360   0.42104   0.02013
C     0.00813   1.55771   0.35097
C     0.17400   2.71652   1.21660
C     1.31679   2.36486   2.18899
C     1.15518   1.08032   3.02511
C     1.45583  -0.30495   2.39906
C     0.28035  -1.11716   1.80648
C     0.13367  -0.97981   0.29509
F     1.19019  -1.59518  -0.34332
Br   -1.52756  -1.96797  -0.29078
H     2.01972   3.46140  -0.98508
H     2.26648   1.74886  -1.38919
H     2.26269   2.98761  -2.67936
H    -1.12827   1.68327  -2.70105
H     1.26489   0.37230  -2.15865
H     0.34111   3.66649   0.74024
H    -0.78478   2.74922   1.74839
H     1.39806   3.20966   2.86639
H     2.25877   2.30803   1.61547
H     0.15446   1.06056   3.48339
H     1.86289   1.19475   3.86788
H     2.26899  -0.21943   1.65592
H     1.85816  -0.93686   3.20123
H    -0.67257  -0.76108   2.24996
H     0.38253  -2.16175   2.00786
29

C     1.79067   2.67556  -1.73360
N     0.36382   2.70445  -2.05771
N    -0.14061   1.58800  -2.42992
N     0.29374   0.39058  -2.56949
C     0.02711   0.42194  -0.00109
C     0.01345   1.56525   0.33023
C     0.17339   2.71125   1.21366
C     1.31584   2.36314   2.18740
C     1.15592   1.08014   3.02530
C     1.45586  -0.30452   2.39874
C     0.27919  -1.11306   1.80450
C     0.13383  -0.97600   0.29314
F     1.19014  -1.59514  -0.34232
Br   -1.52741  -1.96734  -0.29056
H     2.02121   3.46105  -0.98436
H     2.26889   1.74947  -1.39185
H     2.25852   2.98998  -2.68008
H    -1.12864   1.68270  -2.69864
H     1.26503   0.37063  -2.15911
H     0.33955   3.66615   0.74161
H    -0.78535   2.74526   1.74707
H     1.39693   3.20950   2.86559
H     2.25876   2.30799   1.61542
H     0.15479   1.06050   3.48369
H     1.86336   1.19487   3.86770
H     2.26914  -0.21937   1.65597
H     1.85776  -0.93717   3.20099
H    -0.67280  -0.75966   2.24946
H     0.38155  -2.16068   2.00686
29

C     1.79074   2.67701  -1.73223
N     0.36134   2.69646  -2.03397
N    -0.13971   1.58846  -2.43474
N     0.28961   0.38681  -2.54374
C     0.03063   0.42284  -0.02231
C     0.01876   1.57278   0.30949
C     0.17279   2.70598   1.21071
C     1.31489   2.36142   2.18582
C     1.15665   1.07997   3.02548
C     1.45589  -0.30409   2.39841
C     0.27803  -1.10896   1.80252
C     0.13400  -0.97219   0.29118
F     1.19010  -1.59509  -0.34132
Br   -1.52726  -1.96671  -0.29034
H     2.02270   3.46070  -0.98364
H     2.27130   1.75007  -1.39451
H     2.25435   2.99236  -2.68081
H    -1.12902   1.68212  -2.69623
H     1.26517   0.36897  -2.15957
H     0.33800   3.66582   0.74297
H    -0.78591   2.74130   1.74574
H     1.39580   3.20935   2.86480
H     2.25874   2.30795   1.61536
H     0.15512   1.06044   3.48399
H     1.86382   1.19500   3.86752
H     2.26929  -0.21931   1.65602
H     1.85736  -0.93747   3.20075
H    -0.67303  -0.75824   2.24896
H     0.38058  -2.15961   2.00587
29

C     1.79080   2.67845  -1.73086
N     0.35885   2.68846  -2.01023
N    -0.13880   1.58891  -2.43955
N     0.28548   0.38304  -2.51798
C     0.03415   0.42375  -0.04352
C     0.02408   1.58032   0.28875
C     0.17219   2.70072   1.20777
C     1.31394   2.35970   2.18424
C     1.15739   1.07979   3.02566
C     1.45592  -0.30366   2.39808
C     0.27687  -1.10486   1.80054
C     0.13417  -0.96839   0.28923
F     1.19005  -1.59505  -0.34031
Br   -1.52711  -1.96609  -0.29012
H     2.02419   3.46035  -0.98292
H     2.27372   1.75068  -1.39716
H     2.25018   2.99474  -2.68154
H    -1.12939   1.68155  -2.69382
H     1.26530   0.36730  -2.16004
H     0.33644   3.66548   0.74433
H    -0.78647   2.73733   1.74441
H     1.39467   3.20919   2.86400
H     2.25873   2.30791   1.61531
H     0.15546   1.06038   3.48429
H     1.86429   1.19513   3.86734
H     2.26943  -0.21924   1.65607
H     1.85695  -0.93778   3.20051
H    -0.67326  -0.75682   2.24847
H     0.37961  -2.15855   2.00488
29

C     1.79087   2.67989  -1.72949
N     0.35636   2.68046  -1.98649
N    -0.13789   1.58937  -2.44437
N     0.28136   0.37926  -2.49223
C     0.03766   0.42465  -0.06474
C     0.02939   1.58785   0.26802
C     0.17158   2.69545   1.20482
C     1.31299   2.35798   2.18266
C     1.15813   1.07962   3.02584
C     1.45595  -0.30323   2.39775
C     0.27571  -1.10076   1.79856
C     0.13434  -0.96458   0.28727
F     1.19000  -1.59500  -0.33931
Br   -1.52696  -1.96546  -0.28989
H     2.02568   3.46000  -0.98221
H     2.27613   1.75129  -1.39982
H     2.24601   2.99711  -2.68227
H    -1.12977   1.68098  -2.69142
H     1.26544   0.36563  -2.16050
H     0.33488   3.66514   0.74570
H    -0.78704   2.73337   1.74308
H     1.39353   3.20904   2.86321
H     2.25871   2.30786   1.61526
H     0.15579   1.06032   3.48459
H     1.86475   1.19525   3.86716
H     2.26958  -0.21918   1.65611
H     1.85655  -0.93808   3.20027
H    -0.67350  -0.75540   2.24797
H     0.37864  -2.15748   2.00388
29

C     1.79094   2.68133  -1.72811
N     0.35387   2.67247  -1.96275
N    -0.13698   1.58982  -2.44918
N     0.27723   0.37549  -2.46648
C     0.04118   0.42555  -0.08596
C     0.03470   1.59538   0.24728
C     0.17098   2.69019   1.20188
C     1.31204   2.35626   2.18108
C     1.15886   1.07944   3.02602
C     1.45598  -0.30280   2.39743
C     0.27455  -1.09665   1.79658
C     0.13451  -0.96077   0.28531
F     1.18996  -1.59496  -0.33830
Br   -1.52681  -1.96483  -0.28967
H     2.02717   3.45965  -0.98149
H     2.27854   1.75190  -1.40247
H     2.24184   2.99949  -2.68299
H    -1.13014   1.68041  -2.68901
H     1.26558   0.36397  -2.16096
H     0.33332   3.66481   0.74706
H    -0.78760   2.72941   1.74175
H     1.39240   3.20888   2.86241
H     2.25870   2.30782   1.61521
H     0.15612   1.06025   3.48490
H     1.86521   1.19538   3.86698
H     2.26972  -0.21912   1.65616
H     1.85614  -0.93839   3.20002
H    -0.67373  -0.75398   2.24748
H     0.37767  -2.15641   2.00289
29

C     1.79101   2.68277  -1.72674
N     0.35138   2.66447  -1.93900
N    -0.13607   1.59028  -2.45399
N     0.27310   0.37172  -2.44073
C     0.04470   0.42646  -0.10717
C     0.04002   1.60292   0.22654
C     0.17038   2.68492   1.19893
C     1.31109   2.35454   2.17949
C     1.15960   1.07927   3.02620
C     1.45601  -0.30237   2.39710
C     0.27339  -1.09255   1.79460
C     0.13468  -0.95696   0.28336
F     1.18991  -1.59491  -0.33730
Br   -1.52666  -1.96420  -0.28945
H     2.02866   3.45930  -0.98077
H     2.28095   1.75251  -1.40513
H     2.23767   3.00187  -2.68372
H    -1.13052   1.67984  -2.68660
H     1.26572   0.36230  -2.16142
H     0.33176   3.66447   0.74842
H    -0.78817   2.72545   1.74043
H     1.39127   3.20873   2.86162
H     2.25868   2.30778   1.61515
H     0.15645   1.06019   3.48520
H     1.86568   1.19551   3.86680
H     2.26987  -0.21905   1.65621
H     1.85574  -0.93869   3.19978
H    -0.67396  -0.75256   2.24698
H     0.37670  -2.15534   2.00190
29

C     1.79107   2.68422  -1.72537
N     0.34889   2.65647  -1.91526
N    -0.13517   1.59073  -2.45881
N     0.26898   0.36795  -2.41498
C     0.04822   0.42736  -0.12839
C     0.04533   1.61045   0.20580
C     0.16977   2.67966   1.19599
C     1.31014   2.35282   2.17791
C     1.16034   1.07909   3.02639
C     1.45604  -0.30194   2.39677
C     0.27223  -1.08845   1.79262
C     0.13485  -0.95316   0.28140
F     1.18987  -1.59487  -0.33630
Br   -1.52651  -1.96357  -0.28922
H     2.03015   3.45896  -0.98005
H     2.28337   1.75312  -1.40778
H     2.23349   3.00424  -2.68445
H    -1.13089   1.67926  -2.68419
H     1.26585   0.36064  -2.16189
H     0.33021   3.66413   0.74979
H    -0.78873   2.72149   1.73910
H     1.39014   3.20857   2.86082
H     2.25867   2.30774   1.61510
H     0.15679   1.06013   3.48550
H     1.86614   1.19564   3.86662
H     2.27002  -0.21899   1.65626
H     1.85533  -0.93900   3.19954
H    -0.67419  -0.75114   2.24648
H     0.37573  -2.15427   2.00090
29

C     1.79114   2.68566  -1.72400
N     0.34640   2.64848  -1.89152
N    -0.13426   1.59119  -2.46362
N     0.26485   0.36417  -2.38923
C     0.05173   0.42826  -0.14961
C     0.05065   1.61798   0.18506
C     0.16917   2.67439   1.19304
C     1.30919   2.35110   2.17633
C     1.16107   1.07892   3.02657
C     1.45607  -0.30151   2.39645
C     0.27107  -1.08435   1.79064
C     0.13502  -0.94935   0.27945
F     1.18982  -1.59483  -0.33529
Br   -1.52636  -1.96295  -0.28900
H     2.03164   3.45861  -0.97933
H     2.28578   1.75373  -1.41044
H     2.22932   3.00662  -2.68518
H    -1.13127   1.67869  -2.68178
H     1.26599   0.35897  -2.16235
H     0.32865   3.66380   0.75115
H    -0.78930   2.71752   1.73777
H     1.38901   3.20842   2.86003
H     2.25865   2.30770   1.61505
H     0.15712   1.06007   3.48580
H     1.86661   1.19576   3.86644
H     2.27016  -0.21893   1.65630
H     1.85493  -0.93930   3.19930
H    -0.67442  -0.74972   2.24599
H     0.37476  -2.15320   1.99991
29

C     1.79121   2.68710  -1.72263
N     0.34391   2.64048  -1.86778
N    -0.13335   1.59164  -2.46844
N     0.26073   0.36040  -2.36348
C     0.05525   0.42917  -0.17082
C     0.05596   1.62552   0.16433
C     0.16857   2.66912   1.19010
C     1.30824   2.34938   2.17475
C     1.16181   1.07875   3.02675
C     1.45610  -0.30108   2.39612
C     0.26991  -1.08024   1.78866
C     0.13519  -0.94554   0.27749
F     1.18977  -1.59478  -0.33429
Br   -1.52621  -1.96232  -0.28878
H     2.03313   3.45826  -0.97861
H     2.28819   1.75433  -1.41309
H     2.22515   3.00900  -2.68590
H    -1.13164   1.67812  -2.67937
H     1.26613   0.35730  -2.16281
H     0.32709   3.66346   0.75251
H    -0.78986   2.71356   1.73644
H     1.38788   3.20826   2.85923
H     2.25863   2.30766   1.61499
H     0.15745   1.06001   3.48610
H     1.86707   1.19589   3.86626
H     2.27031  -0.21886   1.65635
H     1.85452  -0.93961   3.19906
H    -0.67466  -0.74830   2.24549
H     0.37379  -2.15213   1.99892
29

C     1.79128   2.68854  -1.72125
N     0.34142   2.63248  -1.84404
N    -0.13244   1.59210  -2.47325
N     0.25660   0.35663  -2.33773
C     0.05877   0.43007  -0.19204
C     0.06127   1.63305   0.14359
C     0.16796   2.66386   1.18715
C     1.30729   2.34766   2.17317
C     1.16255   1.07857   3.02693
C     1.45613  -0.30065   2.39579
C     0.26875  -1.07614   1.78668
C     0.13536  -0.94173   0.27554
F     1.18973  -1.59474  -0.33329
Br   -1.52606  -1.96169  -0.28855
H     2.03462   3.45791  -0.97789
H     2.29060   1.75494  -1.41575
H     2.22098   3.01137  -2.68663
H    -1.13202   1.67755  -2.67696
H     1.26626   0.35564  -2.16328
H     0.32553   3.66312   0.75388
H    -0.79042   2.70960   1.73512
H     1.38675   3.20811   2.85844
H     2.25862   2.30762   1.61494
H     0.15778   1.05995   3.48640
H     1.86754   1.19602   3.86608
H     2.27046  -0.21880   1.65640
H     1.85412  -0.93991   3.19882
H    -0.67489  -0.74688   2.24499
H     0.37282  -2.15106   1.99792
29

C     1.79134   2.68998  -1.71988
N     0.33893   2.62449  -1.82029
N    -0.13154   1.59255  -2.47807
N     0.25247   0.35286  -2.31198
C     0.06228   0.43097  -0.21326
C     0.06659   1.64058   0.12285
C     0.16736   2.65859   1.18421
C     1.30634   2.34594   2.17158
C     1.16329   1.07840   3.02711
C     1.45616  -0.30023   2.39546
C     0.26759  -1.07204   1.78470
C     0.13553  -0.93793   0.27358
F     1.18968  -1.59469  -0.33228
Br   -1.52591  -1.96106  -0.28833
H     2.03611   3.45756  -0.97717
H     2.29302   1.75555  -1.41841
H     2.21681   3.01375  -2.68736
H    -1.13239   1.67697  -2.67455
H     1.26640   0.35397  -2.16374
H     0.32397   3.66279   0.75524
H    -0.79099   2.70564   1.73379
H     1.38562   3.20795   2.85764
H     2.25860   2.30758   1.61489
H     0.15812   1.05989   3.48670
H     1.86800   1.19615   3.86590
H     2.27060  -0.21874   1.65645
H     1.85372  -0.94022   3.19858
H    -0.67512  -0.74546   2.24450
H     0.37185  -2.14999   1.99693
29

C     1.79141   2.69143  -1.71851
N     0.33644   2.61649  -1.79655
N    -0.13063   1.59301  -2.48288
N     0.24835   0.34908  -2.28622
C     0.06580   0.43188  -0.23447
C     0.07190   1.64812   0.10211
C     0.16676   2.65333   1.18127
C     1.30539   2.34422   2.17000
C     1.16402   1.07822   3.02730
C     1.45619  -0.29980   2.39514
C     0.26643  -1.06794   1.78271
C     0.13570  -0.93412   0.27163
F     1.18963  -1.59465  -0.33128
Br   -1.52576  -1.96043  -0.28811
H     2.03760   3.45721  -0.97645
H     2.29543   1.75616  -1.42106
H     2.21264   3.01613  -2.68809
H    -1.13277   1.67640  -2.67214
H     1.26654   0.35230  -2.16420
H     0.32242   3.66245   0.75660
H    -0.79155   2.70168   1.73246
H     1.38449   3.20780   2.85685
H     2.25859   2.30754   1.61483
H     0.15845   1.05982   3.48700
H     1.86847   1.19627   3.86572
H     2.27075  -0.21868   1.65649
H     1.85331  -0.94052   3.19834
H    -0.67535  -0.74404   2.24400
H     0.37088  -2.14892   1.99594
29

C     1.79148   2.69287  -1.71714
N     0.33395   2.60849  -1.77281
N    -0.12972   1.59347  -2.48769
N     0.24422   0.34531  -2.26047
C     0.06932   0.43278  -0.25569
C     0.07722   1.65565   0.08137
C     0.16615   2.64806   1.17832
C     1.30444   2.34251   2.16842
C     1.16476   1.07805   3.02748
C     1.45622  -0.29937   2.39481
C     0.26527  -1.06384   1.78073
C     0.13587  -0.93031   0.26967
F     1.18959  -1.59460  -0.33028
Br   -1.52561  -1.95980  -0.28789
H     2.03909   3.45686  -0.97574
H     2.29784   1.75677  -1.42372
H     2.20847   3.01850  -2.68881
H    -1.13314   1.67583  -2.66973
H     1.26668   0.35064  -2.16466
H     0.32086   3.66211   0.75797
H    -0.79212   2.69772   1.73113
H     1.38336   3.20764   2.85606
H     2.25857   2.30750   1.61478
H     0.15878   1.05976   3.48731
H     1.86893   1.19640   3.86554
H     2.27090  -0.21861   1.65654
H     1.85291  -0.94083   3.19809
H    -0.67558  -0.74262   2.24350
H     0.36991  -2.14785   1.99494
29

C     1.79155   2.69431  -1.71577
N     0.33146   2.60049  -1.74907
N    -0.12881   1.59392  -2.49251
N     0.24009   0.34154  -2.23472
C     0.07283   0.43368  -0.27691
C     0.08253   1.66318   0.06064
C     0.16555   2.64280   1.17538
C     1.30349   2.34079   2.16684
C     1.16550   1.07787   3.02766
C     1.45625  -0.29894   2.39448
C     0.26411  -1.05973   1.77875
C     0.13604  -0.92650   0.26772
F     1.18954  -1.59456  -0.32927
Br   -1.52546  -1.95918  -0.28766
H     2.04058   3.45651  -0.97502
H     2.30025   1.75738  -1.42637
H     2.20430   3.02088  -2.68954
H    -1.13352   1.67526  -2.66733
H     1.26681   0.34897  -2.16513
H     0.31930   3.66178   0.75933
H    -0.79268   2.69375   1.72981
H     1.38223   3.20749   2.85526
H     2.25856   2.30746   1.61473
H     0.15911   1.05970   3.48761
H     1.86940   1.19653   3.86536
H     2.27104  -0.21855   1.65659
H     1.85250  -0.94113   3.19785
H    -0.67582  -0.74120   2.24301
H     0.36894  -2.14679   1.99395
29

C     1.79161   2.69575  -1.71439
N     0.32897   2.59250  -1.72533
N    -0.12790   1.59438  -2.49732
N     0.23597   0.33777  -2.20897
C     0.07635   0.43459  -0.29812
C     0.08784   1.67072   0.03990
C     0.16495   2.63753   1.17243
C     1.30254   2.33907   2.16526
C     1.16623   1.07770   3.02784
C     1.45628  -0.29851   2.39416
C     0.26295  -1.05563   1.77677
C     0.13621  -0.92270   0.26576
F     1.18950  -1.59451  -0.32827
Br   -1.52531  -1.95855  -0.28744
H     2.04207   3.45616  -0.97430
H     2.30267   1.75798  -1.42903
H     2.20013   3.02325  -2.69027
H    -1.13389   1.67469  -2.66492
H     1.26695   0.34730  -2.16559
H     0.31774   3.66144   0.76069
H    -0.79324   2.68979   1.72848
H     1.38110   3.20733   2.85447
H     2.25854   2.30742   1.61468
H     0.15945   1.05964   3.48791
H     1.86986   1.19665   3.86518
H     2.27119  -0.21849   1.65664
H     1.85210  -0.94144   3.19761
H    -0.67605  -0.73978   2.24251
H     0.36797  -2.14572   1.99296
29

C     1.79168   2.69719  -1.71302
N     0.32648   2.58450  -1.70158
N    -0.12700   1.59483  -2.50214
N     0.23184   0.33399  -2.18322
C     0.07987   0.43549  -0.31934
C     0.09316   1.67825   0.01916
C     0.16434   2.63226   1.16949
C     1.30159   2.33735   2.16367
C     1.16697   1.07752   3.02802
C     1.45631  -0.29808   2.39383
C     0.26179  -1.05153   1.77479
C     0.13638  -0.91889   0.26381
F     1.18945  -1.59447  -0.32726
Br   -1.52517  -1.95792  -0.28722
H     2.04356   3.45581  -0.97358
H     2.30508   1.75859  -1.43168
H     2.19596   3.02563  -2.69099
H    -1.13426   1.67411  -2.66251
H     1.26709   0.34564  -2.16605
H     0.31618   3.66110   0.76206
H    -0.79381   2.68583   1.72715
H     1.37997   3.20718   2.85367
H     2.25853   2.30738   1.61462
H     0.15978   1.05958   3.48821
H     1.87033   1.19678   3.86500
H     2.27133  -0.21842   1.65668
H     1.85169  -0.94174   3.19737
H    -0.67628  -0.73836   2.24202
H     0.36700  -2.14465   1.99196
29

C     1.79175   2.69864  -1.71165
N     0.32399   2.57650  -1.67784
N    -0.12609   1.59529  -2.50695
N     0.22772   0.33022  -2.15747
C     0.08339   0.43639  -0.34056
C     0.09847   1.68578  -0.00158
C     0.16374   2.62700   1.16654
C     1.30064   2.33563   2.16209
C     1.16771   1.07735   3.02820
C     1.45634  -0.29765   2.39350
C     0.26063  -1.04743   1.77281
C     0.13655  -0.91508   0.26185
F     1.18940  -1.59442  -0.32626
Br   -1.52502  -1.95729  -0.28699
H     2.04505   3.45547  -0.97286
H     2.30749   1.75920  -1.43434
H     2.19178   3.02801  -2.69172
H    -1.13464   1.67354  -2.66010
H     1.26722   0.34397  -2.16652
H     0.31462   3.66077   0.76342
H    -0.79437   2.68187   1.72582
H     1.37884   3.20702   2.85288
H     2.25851   2.30733   1.61457
H     0.16011   1.05952   3.48851
H     1.87079   1.19691   3.86482
H     2.27148  -0.21836   1.65673
H     1.85129  -0.94205   3.19713
H    -0.67651  -0.73694   2.24152
H     0.36603  -2.14358   1.99097
29

C     1.79181   2.70008  -1.71028
N     0.32150   2.56851  -1.65410
N    -0.12518   1.59574  -2.51177
N     0.22359   0.32645  -2.13172
C     0.08690   0.43730  -0.36178
C     0.10379   1.69332  -0.02232
C     0.16313   2.62173   1.16360
C     1.29969   2.33391   2.16051
C     1.16845   1.07718   3.02839
C     1.45637  -0.29722   2.39318
C     0.25947  -1.04333   1.77083
C     0.13672  -0.91127   0.25990
F     1.18936  -1.59438  -0.32526
Br   -1.52487  -1.95666  -0.28677
H     2.04654   3.45512  -0.97214
H     2.30990   1.75981  -1.43699
H     2.18761   3.03038  -2.69245
H    -1.13501   1.67297  -2.65769
H     1.26736   0.34231  -2.16698
H     0.31307   3.66043   0.76478
H    -0.79494   2.67791   1.72450
H     1.37771   3.20687   2.85208
H     2.25850   2.30729   1.61452
H     0.16044   1.05946   3.48881
H     1.87125   1.19704   3.86464
H     2.27163  -0.21830   1.65678
H     1.85089  -0.94235   3.19689
H    -0.67674  -0.73552   2.24102
H     0.36506  -2.14251   1.98998
29

C     1.79188   2.70152  -1.70891
N     0.31901   2.56051  -1.63036
N    -0.12427   1.59620  -2.51658
N     0.21946   0.32268  -2.10597
C     0.09042   0.43820  -0.38299
C     0.10910   1.70085  -0.04305
C     0.16253   2.61647   1.16065
C     1.29874   2.33219   2.15893
C     1.16918   1.07700   3.02857
C     1.45640  -0.29679   2.39285
C     0.25831  -1.03922   1.76885
C     0.13689  -0.90746   0.25794
F     1.18931  -1.59433  -0.32425
Br   -1.52472  -1.95604  -0.28655
H     2.04803   3.45477  -0.97142
H     2.31232   1.76042  -1.43965
H     2.18344   3.03276  -2.69318
H    -1.13539   1.67240  -2.65528
H     1.26750   0.34064  -2.16744
H     0.31151   3.66009   0.76615
H    -0.79550   2.67395   1.72317
H     1.37657   3.20671   2.85129
H     2.25848   2.30725   1.61446
H     0.16078   1.05939   3.48911
H     1.87172   1.19716   3.86446
H     2.27177  -0.21823   1.65682
H     1.85048  -0.94266   3.19665
H    -0.67698  -0.73411   2.24053
H     0.36409  -2.14144   1.98898
29

C     1.79195   2.70296  -1.70753
N     0.31652   2.55251  -1.60662
N    -0.12336   1.59665  -2.52139
N     0.21534   0.31890  -2.08021
C     0.09394   0.43910  -0.40421
C     0.11441   1.70839  -0.06379
C     0.16193   2.61120   1.15771
C     1.29779   2.33047   2.15735
C     1.16992   1.07683   3.02875
C     1.45643  -0.29636   2.39252
C     0.25715  -1.03512   1.76687
C     0.13706  -0.90366   0.25599
F     1.18926  -1.59429  -0.32325
Br   -1.52457  -1.95541  -0.28632
H     2.04952   3.45442  -0.97070
H     2.31473   1.76103  -1.44231
H     2.17927   3.03514  -2.69390
H    -1.13576   1.67182  -2.65287
H     1.26764   0.33897  -2.16790
H     0.30995   3.65976   0.76751
H    -0.79606   2.66998   1.72184
H     1.37544   3.20656   2.85049
H     2.25847   2.30721   1.61441
H     0.16111   1.05933   3.48941
H     1.87218   1.19729   3.86428
H     2.27192  -0.21817   1.65687
H     1.85008  -0.94296   3.19641
H    -0.67721  -0.73269   2.24003
H     0.36312  -2.14037   1.98799
29

C     1.79188   2.70152  -1.70891
N     0.31901   2.56051  -1.63036
N    -0.12427   1.59620  -2.51658
N     0.21946   0.32268  -2.10597
C     0.09042   0.43820  -0.38299
C     0.10910   1.70085  -0.04305
C     0.16253   2.61647   1.16065
C     1.29874   2.33219   2.15893
C     1.16918   1.07700   3.02857
C     1.45640  -0.29679   2.39285
C     0.25831  -1.03922   1.76885
C     0.13689  -0.90746   0.25794
F     1.18931  -1.59433  -0.32425
Br   -1.52472  -1.95604  -0.28655
H     2.04803   3.45477  -0.97142
H     2.31232   1.76042  -1.43965
H     2.18344   3.03276  -2.69318
H    -1.13539   1.67240  -2.65528
H     1.26750   0.34064  -2.16744
H     0.31151   3.66009   0.76615
H    -0.79550   2.67395   1.72317
H     1.37657   3.20671   2.85129
H     2.25848   2.30725   1.61446
H     0.16078   1.05939   3.48911
H     1.87172   1.19716   3.86446
H     2.27177  -0.21823   1.65682
H     1.85048  -0.94266   3.19665
H    -0.67698  -0.73411   2.24053
H     0.36409  -2.14144   1.98898
29

C     1.79181   2.70008  -1.71028
N     0.32150   2.56851  -1.65410
N    -0.12518   1.59574  -2.51177
N     0.22359   0.32645  -2.13172
C     0.08690   0.43730  -0.36178
C     0.10379   1.69332  -0.02232
C     0.16313   2.62173   1.16360
C     1.29969   2.33391   2.16051
C     1.16845   1.07718   3.02839
C     1.45637  -0.29722   2.39318
C     0.25947  -1.04333   1.77083
C     0.13672  -0.91127   0.25990
F     1.18936  -1.59438  -0.32526
Br   -1.52487  -1.95666  -0.28677
H     2.04654   3.45512  -0.97214
H     2.30990   1.75981  -1.43699
H     2.18761   3.03038  -2.69245
H    -1.13501   1.67297  -2.65769
H     1.26736   0.34231  -2.16698
H     0.31307   3.66043   0.76478
H    -0.79494   2.67791   1.72450
H     1.37771   3.20687   2.85208
H     2.25850   2.30729   1.61452
H     0.16044   1.05946   3.48881
H     1.87125   1.19704   3.86464
H     2.27163  -0.21830   1.65678
H     1.85089  -0.94235   3.19689
H    -0.67674  -0.73552   2.24102
H     0.36506  -2.14251   1.98998
29

C     1.79175   2.69864  -1.71165
N     0.32399   2.57650  -1.67784
N    -0.12609   1.59529  -2.50695
N     0.22772   0.33022  -2.15747
C     0.08339   0.43639  -0.34056
C     0.09847   1.68578  -0.00158
C     0.16374   2.62700   1.16654
C     1.30064   2.33563   2.16209
C     1.16771   1.07735   3.02820
C     1.45634  -0.29765   2.39350
C     0.26063  -1.04743   1.77281
C     0.13655  -0.91508   0.26185
F     1.18940  -1.59442  -0.32626
Br   -1.52502  -1.95729  -0.28699
H     2.04505   3.45547  -0.97286
H     2.30749   1.75920  -1.43434
H     2.19178   3.02801  -2.69172
H    -1.13464   1.67354  -2.66010
H     1.26722   0.34397  -2.16652
H     0.31462   3.66077   0.76342
H    -0.79437   2.68187   1.72582
H     1.37884   3.20702   2.85288
H     2.25851   2.30733   1.61457
H     0.16011   1.05952   3.48851
H     1.87079   1.19691   3.86482
H     2.27148  -0.21836   1.65673
H     1.85129  -0.94205   3.19713
H    -0.67651  -0.73694   2.24152
H     0.36603  -2.14358   1.99097
29

C     1.79168   2.69719  -1.71302
N     0.32648   2.58450  -1.70158
N    -0.12700   1.59483  -2.50214
N     0.23184   0.33399  -2.18322
C     0.07987   0.43549  -0.31934
C     0.09316   1.67825   0.01916
C     0.16434   2.63226   1.16949
C     1.30159   2.33735   2.16367
C     1.16697   1.07752   3.02802
C     1.45631  -0.29808   2.39383
C     0.26179  -1.05153   1.77479
C     0.13638  -0.91889   0.26381
F     1.18945  -1.59447  -0.32726
Br   -1.52517  -1.95792  -0.28722
H     2.04356   3.45581  -0.97358
H     2.30508   1.75859  -1.43168
H     2.19596   3.02563  -2.69099
H    -1.13426   1.67411  -2.66251
H     1.26709   0.34564  -2.16605
H     0.31618   3.66110   0.76206
H    -0.79381   2.68583   1.72715
H     1.37997   3.20718   2.85367
H     2.25853   2.30738   1.61462
H     0.15978   1.05958   3.48821
H     1.87033   1.19678   3.86500
H     2.27133  -0.21842   1.65668
H     1.85169  -0.94174   3.19737
H    -0.67628  -0.73836   2.24202
H     0.36700  -2.14465   1.99196
29

C     1.79161   2.69575  -1.71439
N     0.32897   2.59250  -1.72533
N    -0.12790   1.59438  -2.49732
N     0.23597   0.33777  -2.20897
C     0.07635   0.43459  -0.29812
C     0.08784   1.67072   0.03990
C     0.16495   2.63753   1.17243
C     1.30254   2.33907   2.16526
C     1.16623   1.07770   3.02784
C     1.45628  -0.29851   2.39416
C     0.26295  -1.05563   1.77677
C     0.13621  -0.92270   0.26576
F     1.18950  -1.59451  -0.32827
Br   -1.52531  -1.95855  -0.28744
H     2.04207   3.45616  -0.97430
H     2.30267   1.75798  -1.42903
H     2.20013   3.02325  -2.69027
H    -1.13389   1.67469  -2.66492
H     1.26695   0.34730  -2.16559
H     0.31774   3.66144   0.76069
H    -0.79324   2.68979   1.72848
H     1.38110   3.20733   2.85447
H     2.25854   2.30742   1.61468
H     0.15945   1.05964   3.48791
H     1.86986   1.19665   3.86518
H     2.27119  -0.21849   1.65664
H     1.85210  -0.94144   3.19761
H    -0.67605  -0.73978   2.24251
H     0.36797  -2.14572   1.99296
29

C     1.79155   2.69431  -1.71577
N     0.33146   2.60049  -1.74907
N    -0.12881   1.59392  -2.49251
N     0.24009   0.34154  -2.23472
C     0.07283   0.43368  -0.27691
C     0.08253   1.66318   0.06064
C     0.16555   2.64280   1.17538
C     1.30349   2.34079   2.16684
C     1.16550   1.07787   3.02766
C     1.45625  -0.29894   2.39448
C     0.26411  -1.05973   1.77875
C     0.13604  -0.92650   0.26772
F     1.18954  -1.59456  -0.32927
Br   -1.52546  -1.95918  -0.28766
H     2.04058   3.45651  -0.97502
H     2.30025   1.75738  -1.42637
H     2.20430   3.02088  -2.68954
H    -1.13352   1.67526  -2.66733
H     1.26681   0.34897  -2.16513
H     0.31930   3.66178   0.75933
H    -0.79268   2.69375   1.72981
H     1.38223   3.20749   2.85526
H     2.25856   2.30746   1.61473
H     0.15911   1.05970   3.48761
H     1.86940   1.19653   3.86536
H     2.27104  -0.21855   1.65659
H     1.85250  -0.94113   3.19785
H    -0.67582  -0.74120   2.24301
H     0.36894  -2.14679   1.99395
29

C     1.79148   2.69287  -1.71714
N     0.33395   2.60849  -1.77281
N    -0.12972   1.59347  -2.48769
N     0.24422   0.34531  -2.26047
C     0.06932   0.43278  -0.25569
C     0.07722   1.65565   0.08137
C     0.16615   2.64806   1.17832
C     1.30444   2.34251   2.16842
C     1.16476   1.07805   3.02748
C     1.45622  -0.29937   2.39481
C     0.26527  -1.06384   1.78073
C     0.13587  -0.93031   0.26967
F     1.18959  -1.59460  -0.33028
Br   -1.52561  -1.95980  -0.28789
H     2.03909   3.45686  -0.97574
H     2.29784   1.75677  -1.42372
H     2.20847   3.01850  -2.68881
H    -1.13314   1.67583  -2.66973
H     1.26668   0.35064  -2.16466
H     0.32086   3.66211   0.75797
H    -0.79212   2.69772   1.73113
H     1.38336   3.20764   2.85606
H     2.25857   2.30750   1.61478
H     0.15878   1.05976   3.48731
H     1.86893   1.19640   3.86554
H     2.27090  -0.21861   1.65654
H     1.85291  -0.94083   3.19809
H    -0.67558  -0.74262   2.24350
H     0.36991  -2.14785   1.99494
29

C     1.79141   2.69143  -1.71851
N     0.33644   2.61649  -1.79655
N    -0.13063   1.59301  -2.48288
N     0.24835   0.34908  -2.28622
C     0.06580   0.43188  -0.23447
C     0.07190   1.64812   0.10211
C     0.16676   2.65333   1.18127
C     1.30539   2.34422   2.17000
C     1.16402   1.07822   3.02730
C     1.45619  -0.29980   2.39514
C     0.26643  -1.06794   1.78271
C     0.13570  -0.93412   0.27163
F     1.18963  -1.59465  -0.33128
Br   -1.52576  -1.96043  -0.28811
H     2.03760   3.45721  -0.97645
H     2.29543   1.75616  -1.42106
H     2.21264   3.01613  -2.68809
H    -1.13277   1.67640  -2.67214
H     1.26654   0.35230  -2.16420
H     0.32242   3.66245   0.75660
H    -0.79155   2.70168   1.73246
H     1.38449   3.20780   2.85685
H     2.25859   2.30754   1.61483
H     0.15845   1.05982   3.48700
H     1.86847   1.19627   3.86572
H     2.27075  -0.21868   1.65649
H     1.85331  -0.94052   3.19834
H    -0.67535  -0.74404   2.24400
H     0.37088  -2.14892   1.99594
29

C     1.79134   2.68998  -1.71988
N     0.33893   2.62449  -1.82029
N    -0.13154   1.59255  -2.47807
N     0.25247   0.35286  -2.31198
C     0.06228   0.43097  -0.21326
C     0.06659   1.64058   0.12285
C     0.16736   2.65859   1.18421
C     1.30634   2.34594   2.17158
C     1.16329   1.07840   3.02711
C     1.45616  -0.30023   2.39546
C     0.26759  -1.07204   1.78470
C     0.13553  -0.93793   0.27358
F     1.18968  -1.59469  -0.33228
Br   -1.52591  -1.96106  -0.28833
H     2.03611   3.45756  -0.97717
H     2.29302   1.75555  -1.41841
H     2.21681   3.01375  -2.68736
H    -1.13239   1.67697  -2.67455
H     1.26640   0.35397  -2.16374
H     0.32397   3.66279   0.75524
H    -0.79099   2.70564   1.73379
H     1.38562   3.20795   2.85764
H     2.25860   2.30758   1.61489
H     0.15812   1.05989   3.48670
H     1.86800   1.19615   3.86590
H     2.27060  -0.21874   1.65645
H     1.85372  -0.94022   3.19858
H    -0.67512  -0.74546   2.24450
H     0.37185  -2.14999   1.99693
29

C     1.79128   2.68854  -1.72125
N     0.34142   2.63248  -1.84404
N    -0.13244   1.59210  -2.47325
N     0.25660   0.35663  -2.33773
C     0.05877   0.43007  -0.19204
C     0.06127   1.63305   0.14359
C     0.16796   2.66386   1.18715
C     1.30729   2.34766   2.17317
C     1.16255   1.07857   3.02693
C     1.45613  -0.30065   2.39579
C     0.26875  -1.07614   1.78668
C     0.13536  -0.94173   0.27554
F     1.18973  -1.59474  -0.33329
Br   -1.52606  -1.96169  -0.28855
H     2.03462   3.45791  -0.97789
H     2.29060   1.75494  -1.41575
H     2.22098   3.01137  -2.68663
H    -1.13202   1.67755  -2.67696
H     1.26626   0.35564  -2.16328
H     0.32553   3.66312   0.75388
H    -0.79042   2.70960   1.73512
H     1.38675   3.20811   2.85844
H     2.25862   2.30762   1.61494
H     0.15778   1.05995   3.48640
H     1.86754   1.19602   3.86608
H     2.27046  -0.21880   1.65640
H     1.85412  -0.93991   3.19882
H    -0.67489  -0.74688   2.24499
H     0.37282  -2.15106   1.99792
29

C     1.79121   2.68710  -1.72263
N     0.34391   2.64048  -1.86778
N    -0.13335   1.59164  -2.46844
N     0.26073   0.36040  -2.36348
C     0.05525   0.42917  -0.17082
C     0.05596   1.62552   0.16433
C     0.16857   2.66912   1.19010
C     1.30824   2.34938   2.17475
C     1.16181   1.07875   3.02675
C     1.45610  -0.30108   2.39612
C     0.26991  -1.08024   1.78866
C     0.13519  -0.94554   0.27749
F     1.18977  -1.59478  -0.33429
Br   -1.52621  -1.96232  -0.28878
H     2.03313   3.45826  -0.97861
H     2.28819   1.75433  -1.41309
H     2.22515   3.00900  -2.68590
H    -1.13164   1.67812  -2.67937
H     1.26613   0.35730  -2.16281
H     0.32709   3.66346   0.75251
H    -0.78986   2.71356   1.73644
H     1.38788   3.20826   2.85923
H     2.25863   2.30766   1.61499
H     0.15745   1.06001   3.48610
H     1.86707   1.19589   3.86626
H     2.27031  -0.21886   1.65635
H     1.85452  -0.93961   3.19906
H    -0.67466  -0.74830   2.24549
H     0.37379  -2.15213   1.99892
29

C     1.79114   2.68566  -1.72400
N     0.34640   2.64848  -1.89152
N    -0.13426   1.59119  -2.46362
N     0.26485   0.36417  -2.38923
C     0.05173   0.42826  -0.14961
C     0.05065   1.61798   0.18506
C     0.16917   2.67439   1.19304
C     1.30919   2.35110   2.17633
C     1.16107   1.07892   3.02657
C     1.45607  -0.30151   2.39645
C     0.27107  -1.08435   1.79064
C     0.13502  -0.94935   0.27945
F     1.18982  -1.59483  -0.33529
Br   -1.52636  -1.96295  -0.28900
H     2.03164   3.45861  -0.97933
H     2.28578   1.75373  -1.41044
H     2.22932   3.00662  -2.68518
H    -1.13127   1.67869  -2.68178
H     1.26599   0.35897  -2.16235
H     0.32865   3.66380   0.75115
H    -0.78930   2.71752   1.73777
H     1.38901   3.20842   2.86003
H     2.25865   2.30770   1.61505
H     0.15712   1.06007   3.48580
H     1.86661   1.19576   3.86644
H     2.27016  -0.21893   1.65630
H     1.85493  -0.93930   3.19930
H    -0.67442  -0.74972   2.24599
H     0.37476  -2.15320   1.99991
29

C     1.79107   2.68422  -1.72537
N     0.34889   2.65647  -1.91526
N    -0.13517   1.59073  -2.45881
N     0.26898   0.36795  -2.41498
C     0.04822   0.42736  -0.12839
C     0.04533   1.61045   0.20580
C     0.16977   2.67966   1.19599
C     1.31014   2.35282   2.17791
C     1.16034   1.07909   3.02639
C     1.45604  -0.30194   2.39677
C     0.27223  -1.08845   1.79262
C     0.13485  -0.95316   0.28140
F     1.18987  -1.59487  -0.33630
Br   -1.52651  -1.96357  -0.28922
H     2.03015   3.45896  -0.98005
H     2.28337   1.75312  -1.40778
H     2.23349   3.00424  -2.68445
H    -1.13089   1.67926  -2.68419
H     1.26585   0.36064  -2.16189
H     0.33021   3.66413   0.74979
H    -0.78873   2.72149   1.73910
H     1.39014   3.20857   2.86082
H     2.25867   2.30774   1.61510
H     0.15679   1.06013   3.48550
H     1.86614   1.19564   3.86662
H     2.27002  -0.21899   1.65626
H     1.85533  -0.93900   3.19954
H    -0.67419  -0.75114   2.24648
H     0.37573  -2.15427   2.00090
29

C     1.79101   2.68277  -1.72674
N     0.35138   2.66447  -1.93900
N    -0.13607   1.59028  -2.45399
N     0.27310   0.37172  -2.44073
C     0.04470   0.42646  -0.10717
C     0.04002   1.60292   0.22654
C     0.17038   2.68492   1.19893
C     1.31109   2.35454   2.17949
C     1.15960   1.07927   3.02620
C     1.45601  -0.30237   2.39710
C     0.27339  -1.09255   1.79460
C     0.13468  -0.95696   0.28336
F     1.18991  -1.59491  -0.33730
Br   -1.52666  -1.96420  -0.28945
H     2.02866   3.45930  -0.98077
H     2.28095   1.75251  -1.40513
H     2.23767   3.00187  -2.68372
H    -1.13052   1.67984  -2.68660
H     1.26572   0.36230  -2.16142
H     0.33176   3.66447   0.74842
H    -0.78817   2.72545   1.74043
H     1.39127   3.20873   2.86162
H     2.25868   2.30778   1.61515
H     0.15645   1.06019   3.48520
H     1.86568   1.19551   3.86680
H     2.26987  -0.21905   1.65621
H     1.85574  -0.93869   3.19978
H    -0.67396  -0.75256   2.24698
H     0.37670  -2.15534   2.00190
29

C     1.79094   2.68133  -1.72811
N     0.35387   2.67247  -1.96275
N    -0.13698   1.58982  -2.44918
N     0.27723   0.37549  -2.46648
C     0.04118   0.42555  -0.08596
C     0.03470   1.59538   0.24728
C     0.17098   2.69019   1.20188
C     1.31204   2.35626   2.18108
C     1.15886   1.07944   3.02602
C     1.45598  -0.30280   2.39743
C     0.27455  -1.09665   1.79658
C     0.13451  -0.96077   0.28531
F     1.18996  -1.59496  -0.33830
Br   -1.52681  -1.96483  -0.28967
H     2.02717   3.45965  -0.98149
H     2.27854   1.75190  -1.40247
H     2.24184   2.99949  -2.68299
H    -1.13014   1.68041  -2.68901
H     1.26558   0.36397  -2.16096
H     0.33332   3.66481   0.74706
H    -0.78760   2.72941   1.74175
H     1.39240   3.20888   2.86241
H     2.25870   2.30782   1.61521
H     0.15612   1.06025   3.48490
H     1.86521   1.19538   3.86698
H     2.26972  -0.21912   1.65616
H     1.85614  -0.93839   3.20002
H    -0.67373  -0.75398   2.24748
H     0.37767  -2.15641   2.00289
29

C     1.79087   2.67989  -1.72949
N     0.35636   2.68046  -1.98649
N    -0.13789   1.58937  -2.44437
N     0.28136   0.37926  -2.49223
C     0.03766   0.42465  -0.06474
C     0.02939   1.58785   0.26802
C     0.17158   2.69545   1.20482
C     1.31299   2.35798   2.18266
C     1.15813   1.07962   3.02584
C     1.45595  -0.30323   2.39775
C     0.27571  -1.10076   1.79856
C     0.13434  -0.96458   0.28727
F     1.19000  -1.59500  -0.33931
Br   -1.52696  -1.96546  -0.28989
H     2.02568   3.46000  -0.98221
H     2.27613   1.75129  -1.39982
H     2.24601   2.99711  -2.68227
H    -1.12977   1.68098  -2.69142
H     1.26544   0.36563  -2.16050
H     0.33488   3.66514   0.74570
H    -0.78704   2.73337   1.74308
H     1.39353   3.20904   2.86321
H     2.25871   2.30786   1.61526
H     0.15579   1.06032   3.48459
H     1.86475   1.19525   3.86716
H     2.26958  -0.21918   1.65611
H     1.85655  -0.93808   3.20027
H    -0.67350  -0.75540   2.24797
H     0.37864  -2.15748   2.00388
29

C     1.79080   2.67845  -1.73086
N     0.35885   2.68846  -2.01023
N    -0.13880   1.58891  -2.43955
N     0.28548   0.38304  -2.51798
C     0.03415   0.42375  -0.04352
C     0.02408   1.58032   0.28875
C     0.17219   2.70072   1.20777
C     1.31394   2.35970   2.18424
C     1.15739   1.07979   3.02566
C     1.45592  -0.30366   2.39808
C     0.27687  -1.10486   1.80054
C     0.13417  -0.96839   0.28923
F     1.19005  -1.59505  -0.34031
Br   -1.52711  -1.96609  -0.29012
H     2.02419   3.46035  -0.98292
H     2.27372   1.75068  -1.39716
H     2.25018   2.99474  -2.68154
H    -1.12939   1.68155  -2.69382
H     1.26530   0.36730  -2.16004
H     0.33644   3.66548   0.74433
H    -0.78647   2.73733   1.74441
H     1.39467   3.20919   2.86400
H     2.25873   2.30791   1.61531
H     0.15546   1.06038   3.48429
H     1.86429   1.19513   3.86734
H     2.26943  -0.21924   1.65607
H     1.85695  -0.93778   3.20051
H    -0.67326  -0.75682   2.24847
H     0.37961  -2.15855   2.00488
29

C     1.79074   2.67701  -1.73223
N     0.36134   2.69646  -2.03397
N    -0.13971   1.58846  -2.43474
N     0.28961   0.38681  -2.54374
C     0.03063   0.42284  -0.02231
C     0.01876   1.57278   0.30949
C     0.17279   2.70598   1.21071
C     1.31489   2.36142   2.18582
C     1.15665   1.07997   3.02548
C     1.45589  -0.30409   2.39841
C     0.27803  -1.10896   1.80252
C     0.13400  -0.97219   0.29118
F     1.19010  -1.59509  -0.34132
Br   -1.52726  -1.96671  -0.29034
H     2.02270   3.46070  -0.98364
H     2.27130   1.75007  -1.39451
H     2.25435   2.99236  -2.68081
H    -1.12902   1.68212  -2.69623
H     1.26517   0.36897  -2.15957
H     0.33800   3.66582   0.74297
H    -0.78591   2.74130   1.74574
H     1.39580   3.20935   2.86480
H     2.25874   2.30795   1.61536
H     0.15512   1.06044   3.48399
H     1.86382   1.19500   3.86752
H     2.26929  -0.21931   1.65602
H     1.85736  -0.93747   3.20075
H    -0.67303  -0.75824   2.24896
H     0.38058  -2.15961   2.00587
29

C     1.79067   2.67556  -1.73360
N     0.36382   2.70445  -2.05771
N    -0.14061   1.58800  -2.42992
N     0.29374   0.39058  -2.56949
C     0.02711   0.42194  -0.00109
C     0.01345   1.56525   0.33023
C     0.17339   2.71125   1.21366
C     1.31584   2.36314   2.18740
C     1.15592   1.08014   3.02530
C     1.45586  -0.30452   2.39874
C     0.27919  -1.11306   1.80450
C     0.13383  -0.97600   0.29314
F     1.19014  -1.59514  -0.34232
Br   -1.52741  -1.96734  -0.29056
H     2.02121   3.46105  -0.98436
H     2.26889   1.74947  -1.39185
H     2.25852   2.98998  -2.68008
H    -1.12864   1.68270  -2.69864
H     1.26503   0.37063  -2.15911
H     0.33955   3.66615   0.74161
H    -0.78535   2.74526   1.74707
H     1.39693   3.20950   2.86559
H     2.25876   2.30799   1.61542
H     0.15479   1.06050   3.48369
H     1.86336   1.19487   3.86770
H     2.26914  -0.21937   1.65597
H     1.85776  -0.93717   3.20099
H    -0.67280  -0.75966   2.24946
H     0.38155  -2.16068   2.00686
