21

C 5.380356393 -2.142451482 -0.438876987
C 2.892953605 -1.322946558 -1.630511882
C 0.803995507 -0.968201633 0.315533637
C -1.737249642 0.044681478 -0.808317254
C -4.026989931 -1.004920637 0.609877907
C -1.159585499 2.779051459 -0.788534127
C -2.429254309 4.254037199 1.189915527
H 6.074531808 -0.716716597 0.883977390
H 5.169843435 -3.913137749 0.604864218
H 6.837202955 -2.431595415 -1.869525973
H 2.285422756 -2.736833919 -3.013137938
H 0.367663943 -2.767881911 1.236745378
H 1.466981729 0.281894906 1.832111002
H -1.786211822 -0.611431735 -2.770013863
H -3.873221404 -0.738495767 2.650523267
H -5.780557735 -0.114233472 -0.017323100
H -4.201309172 -3.032834383 0.266778438
H 3.142532115 0.445679302 -2.663867398
H -1.424085268 5.978531019 1.697419393
H -3.155946525 3.283943912 2.870523066
H -4.096738286 4.888307502 0.098226018

