10

N 6.350307649 -1.268653574 0.285251702
C 4.213358879 -0.908409678 0.283236800
C 1.543175770 -0.449831257 0.281628133
N -0.162483849 -2.315177004 0.358367511
C -2.390616459 -1.174066583 0.164148943
C -2.056203418 1.440738687 -0.010212836
N 0.618724509 1.904573514 0.143167673
H -4.145728188 -2.215783987 0.148088218
H -3.370565234 2.983765603 0.218543500
H -0.671070603 2.025245112 -1.887532058

