13

C -2.095874836 -2.282059743 -0.887733316
N -1.937228359 -1.017754391 1.548180483
C -0.628082471 0.082845423 -0.613581808
C 2.483326158 3.759556116 2.015380950
O 3.497942621 2.087886793 0.573314844
C 2.187883371 -0.052349817 -0.594585941
H -1.122951684 -4.081666775 -0.996260873
H -3.847574079 -2.187286066 -1.944732858
H -3.544034288 -0.059043378 1.944595721
H 0.422676006 3.317627467 2.188965957
H -1.436897686 1.757665695 -1.482227775
H 2.816699471 -1.721898395 0.435803140
H 2.939308417 -0.117182597 -2.512126850

