13

C -2.251781644 -1.719281067 -1.293182729
N -1.827988696 -1.820144613 1.442881353
C -0.312582130 -0.173174143 -0.021537095
C 0.894266798 3.483724548 0.324080245
O 2.986359593 2.319980632 -0.766516002
C 2.558842656 -0.233955464 -0.130518168
H -1.689494240 -3.402139421 -2.317753476
H -3.927159385 -0.778715526 -2.008563423
H -3.189580513 -0.943015288 2.459468611
H 0.939743284 3.144186098 2.394798158
H -0.968726221 2.147309817 -0.457172295
H 3.307748149 -0.698443097 1.747994908
H 3.375937423 -1.497016337 -1.546980771

