15

C -3.714181714 0.079165711 0.241411152
N -1.090226163 0.111938343 0.933015009
C 0.658786079 -1.948667589 0.298133020
C 2.646221325 -0.140375508 -0.827052244
O 4.922837485 0.067184885 0.548266089
C 0.854390100 2.073086553 -0.476682111
H -4.752400591 -1.287906293 1.386742749
H -4.523087598 1.948214301 0.562780282
H -3.940609699 -0.393735002 -1.765070133
H -0.207282055 -3.156778061 -1.135123126
H 1.257399631 -3.093590533 1.905506849
H 3.153540564 -0.614117829 -2.771063322
H 4.777032264 1.614304211 1.491942782
H -0.109358545 1.769392428 1.899339029
H -0.051760449 2.896155500 -2.130009393

