9

C -1.981257825 -0.048077089 0.053128667
C 0.839790699 0.154882067 -0.012098235
O 1.601061842 2.578616505 0.145841390
N 2.471053407 -1.577161266 -0.189629935
H -2.700543732 0.791109880 1.792846064
H -2.585274501 -2.009847322 -0.057596396
H -2.789918386 1.004470032 -1.523937187
H 3.423591082 2.548829867 0.091107174
H 1.652849314 -3.304228270 -0.293608751

