9

C -2.132127625 0.008504334 0.056516833
C 0.637703879 0.484496790 0.021386919
O 1.598612171 2.705473517 0.169425115
N 2.508662699 -1.104010505 -0.150502796
H -2.922573758 0.773842017 1.797877819
H -2.571071546 -1.995559556 -0.077727081
H -3.005829611 1.010962470 -1.516698912
H 3.521320498 1.162685405 -0.000761503
H 2.340561129 -2.994912644 -0.295028294

