10

O 4.073479404 -1.046393153 -0.425486067
C 2.492011887 0.463493542 0.027669370
N -0.210729105 -0.104997889 -0.012084931
C -1.625978580 1.905342991 0.579456907
C -0.868241849 -2.438047469 -0.605698022
H 2.834317520 2.448021557 0.524621156
H -0.694779296 3.658092620 1.013769639
H -3.651732218 1.715351703 0.615925447
H 0.612145522 -3.765790852 -1.019586102
H -2.847241980 -2.912221120 -0.651652269

