10

O 4.365486556 -0.918172646 -0.488599801
C 2.769182685 0.575000007 0.072397808
N 0.191444998 -0.008989333 0.160543762
C -1.774163684 1.652629482 0.403485289
C -0.911948398 -2.228136937 -0.423776375
H 3.106919319 2.578809295 0.537222587
H -2.010892529 2.747949836 2.118447917
H -3.073087420 1.827415429 -1.151913966
H -0.294421579 -3.295518673 -2.060492171
H -2.321093472 -2.954320798 0.850248085

