11

C -3.196568513 -0.439191154 0.167032306
C -0.416919957 -0.067666293 0.398313903
N 0.798871666 -0.196371306 2.662455338
N 3.184462795 0.177901879 2.333761327
N 3.548067172 0.553277171 -0.120802500
C 1.356623821 0.420538405 -1.416911225
H -3.828329600 -0.076296993 -1.759629838
H -3.720857171 -2.369674703 0.666554422
H -4.207723054 0.832074324 1.434564423
H 5.302232867 0.888697492 -0.764091256
H 1.238014708 0.673326898 -3.432239300

