14

C 1.712875463 0.934051656 0.414772000
C 2.218724325 -1.650933547 -0.769136712
O 0.718266777 -3.618803702 0.174429488
C -3.816942110 -0.761204227 0.761492524
O -2.907613968 1.449662522 1.159447265
C -0.735655716 2.217305481 -0.357981629
H 1.802346530 0.800563443 2.475434624
H 3.242004483 2.201295419 -0.164797573
H 2.034443449 -1.484662347 -2.835334344
H 4.178591622 -2.171852257 -0.382608238
H -5.426600656 -0.892963076 2.098799300
H -1.049463221 -3.159618830 -0.093677182
H -0.637173111 4.250862837 -0.058028047
H -1.209707442 1.837598407 -2.328693686

