14

C 1.798701645 1.089075660 0.337147474
C 2.011081294 -1.681037187 -0.488380215
O 0.160280428 -3.245815021 0.543064127
C -3.337433857 -1.068543086 0.514202302
O -2.722137028 1.204256016 1.099779956
C -0.685958754 2.314400610 -0.379374293
H 2.046616082 1.240213744 2.383385667
H 3.312295983 2.178299077 -0.554934952
H 1.975620054 -1.727281374 -2.577127684
H 3.876902402 -2.390828014 0.071271966
H -4.602409533 -1.840171383 1.956764839
H -1.888648905 -2.468278571 -0.576636189
H -0.737742389 4.317158265 0.088155667
H -1.139925317 2.052061101 -2.377347199

