9

N 4.598589508 1.358284040 0.804302947
C 3.148133698 -0.125839414 0.139926245
C 1.523306661 -2.021328296 -0.765259863
O -0.868276677 -2.149221653 -0.259706479
C -2.403917542 -0.780199868 1.066514994
C -1.696342079 1.405213688 2.399213163
N -1.266454953 3.211374687 3.539735728
H -4.321059208 -1.462955025 1.071637985
H 2.191787696 -3.520159280 -1.968388450

