13

N -3.710753750 -0.543392391 -0.162005144
C -1.121297191 -0.245962444 -0.085789843
C 0.049489338 2.201054195 0.337243982
C 2.481294702 1.833632042 1.025437469
C 2.736261011 -0.880203891 0.797514408
O 3.483774078 -1.729804272 -1.361191308
N 0.420762942 -1.969475345 1.407857037
H -4.360905822 -2.008095545 -1.182586451
H -4.734010060 1.039532181 -0.393787763
H -0.869304253 3.973338338 -0.102614680
H 4.017747318 3.169453796 0.986828305
H 1.169010942 -1.086167673 -2.249856731
H 0.373836923 -3.762579055 0.744293465

