9

N -3.282057644 -0.622437726 0.038415127
C -0.966567455 -1.668321201 0.364779125
C 1.073784204 -0.328655045 -0.997489837
N 2.806850010 0.954793025 -0.413746521
N 4.802812210 2.052700792 0.029612670
O -0.544185793 -3.528967804 1.609383893
H -4.772829759 -1.525604511 0.791369226
H -3.571875170 0.722683786 -1.264681918
H 4.520625512 3.956876141 -0.070725703

