9

N -2.937754665 -0.534495239 -0.605742620
C -0.567394256 -0.928868288 0.333632054
C 1.268220487 1.037344388 -0.316491350
N 3.557894314 0.713751995 0.530034446
N 5.500231813 0.386510503 1.284772768
O -0.017701972 -2.783146042 1.570822180
H -4.293351609 -1.728790661 -0.025675369
H -3.459983560 1.142589566 -1.315139363
H 0.949839467 2.695103796 -1.456212766

