9

N -2.451824215 -0.022541466 -0.018169547
C -0.489849968 -1.652771797 0.086485036
C 2.138623464 -0.700975783 -0.550008114
N 3.016325887 0.815507813 1.467819539
N 2.641199736 2.662501202 0.098156022
O -0.637381983 -3.883070260 0.544667011
H -4.176080251 -0.683989791 0.429364862
H -2.196182122 1.857174288 -0.069587955
H 2.221727496 1.621227582 -1.901808920

