11

N 5.588805355 -1.077681442 -0.208524380
C 3.653476227 -0.151269402 0.096703730
C 1.168055157 1.041079299 0.423802774
C -0.891932174 0.206226209 -1.455659851
C -2.212051570 -0.846161420 0.899248286
O -0.204869310 0.039653389 2.514702736
H 1.448465267 3.081417125 0.592203658
H -1.850452381 1.762432151 -2.392856464
H -0.292702306 -1.184716097 -2.842345568
H -4.013678681 0.028818739 1.392564692
H -2.393115527 -2.899798552 0.980160406

