10

O 3.790274824 2.213128430 1.580840865
C 2.839080386 0.134096893 0.569755450
C 0.390119048 -0.201401568 -0.003233567
N -0.742135492 -2.255329132 -1.029199895
C -3.112807177 -1.632433677 -1.194955068
C -3.658105905 0.937922098 -0.258557072
O -1.360868637 1.695571789 0.451055308
H 4.203559704 -1.345390609 0.213778726
H -4.511588936 -2.915450624 -1.952685676
H 2.465357489 3.441192350 1.844629568

