17

C -3.239117529 1.457747545 -1.047719740
C -2.679938650 -1.013745280 0.318447387
C 1.767794551 -1.563948471 -1.534546430
C 3.700940705 0.044592378 -1.282232485
C 3.506093236 1.312032162 1.176432898
C 1.457231007 0.456171704 2.384320874
C 0.143839150 -1.493668120 0.792553007
H -5.269827786 1.708459929 -1.307507420
H -3.662154001 -1.043394970 2.137339074
H -2.530012787 3.077489367 0.014254318
H -3.438931822 -2.598952622 -0.770728693
H 1.385571515 -2.770107555 -3.140956008
H -2.351352107 1.499260538 -2.908888891
H 5.184924943 0.375636187 -2.649194015
H 4.831693329 2.703105426 1.874776558
H 0.803773181 1.030992905 4.234434219
H 0.313885928 -3.329559198 1.752667709

