8

N -1.512888959 -0.840145023 1.401612323
C -1.429159881 -0.469808950 -1.016331635
O 0.636324719 0.214149093 -2.074585635
C 2.695051810 0.939930802 0.502398052
O 4.636935264 1.645420177 -0.137303097
H -3.204638399 -1.249547630 2.166377532
H -3.087184721 -0.686314098 -2.243694164
H 0.814036567 0.124731505 1.887048307

