11

N -3.744322675 -0.747008113 0.299621236
C -1.184198785 -0.417337511 0.081834231
N 0.241983739 -2.627122637 -0.547411612
N 2.537143838 -2.139387499 -0.609933692
C 2.943148321 0.523431214 -0.011162933
C 0.371592570 1.547902693 0.418914279
H -4.830969470 0.795410406 0.099661076
H -4.409345682 -2.296703949 -0.578801493
H 4.200567341 0.607548518 1.630737799
H 3.969798598 1.369173058 -1.596361847
H -0.096622358 3.467328698 0.913014998

