18

C -4.234703260 -0.526605897 -0.909353616
C -1.970671353 1.236710324 -0.709854435
C 0.512042175 0.127487538 -1.685751600
C 1.880060516 -0.779754856 0.725378951
C 4.746389335 -0.580545314 0.615095611
C 0.727478096 0.672826329 2.912788000
N -1.297596374 1.707047339 1.963003732
H -5.887202993 0.265224177 0.040592697
H -4.732692070 -0.838534712 -2.886190048
H -3.813725040 -2.354025219 -0.047373317
H -2.422134010 3.038921437 -1.613237839
H -2.479898100 2.727424273 3.057745169
H 0.199745601 -1.374278380 -3.062540840
H 1.634335686 1.595375373 -2.607700731
H 1.387466533 -2.758000439 1.122025623
H 5.511313998 -1.678966916 -0.956791845
H 5.328806365 1.384240713 0.361611755
H 5.587357522 -1.265547942 2.366410711

