18

C -4.191282115 -0.660464477 -0.937927068
C -2.133561379 1.299558779 -0.964870575
C 0.475706011 0.493372682 -1.542977065
C 1.842353109 -0.744114092 0.773572145
C 4.706340425 -0.766001184 0.529508460
C 0.864597701 0.591322063 3.077034000
N -1.093102193 1.783970947 2.941422075
H -5.948509375 0.086536758 -0.153690405
H -4.627066944 -1.346565641 -2.844799566
H -3.656979515 -2.300690818 0.198023210
H -2.691260868 3.100861613 -1.793256796
H -2.473302918 2.900588306 2.235574484
H 0.508435670 -0.934826859 -3.041920885
H 1.612143895 2.094411829 -2.181615565
H 1.179496163 -2.696040703 0.997872526
H 5.282152637 -1.761843123 -1.182876808
H 5.445312819 1.158400451 0.430842155
H 5.574903339 -1.699476813 2.145945548

