15

C 3.782324255 0.093473545 0.068954084
C 1.137189693 0.376457954 0.417017769
C -0.036626766 -1.942304674 -0.805605610
C -2.329084009 -0.245852122 -1.556569166
C -3.035117626 -0.422184545 1.109886325
C -1.335037366 1.572548577 1.894130623
C -0.698679275 2.101337184 -0.829592490
H 5.029738177 1.692604975 -0.275438845
H 4.666871228 -1.471964767 1.064832495
H 2.474393687 -1.570844101 -1.906365484
H -0.215871012 -3.748225810 0.173468354
H -3.491138435 -0.616904457 -3.200521952
H -4.047601892 -1.871206053 2.139014959
H -1.191680059 2.698613207 3.583326740
H -0.322942497 3.872500625 -1.769664359

