14

C -2.643391233 0.825113253 0.314085540
C -0.632063368 0.900691810 -1.589743856
C 1.998805047 1.163329405 -0.511893529
C 2.149633727 -1.005475158 1.444802940
C 0.073323774 -2.878826277 1.032648494
C -1.619166892 -1.708729158 -0.729474932
H -2.221721544 1.301805588 2.259300808
H -4.569811360 1.205640486 -0.251929859
H -1.063513637 1.556427928 -3.478466801
H 2.305475188 3.022597453 0.330888380
H 3.414474589 0.910486374 -1.991262999
H 2.041583855 -0.390168162 3.422792484
H 3.945236732 -2.024660242 1.357590114
H -2.974844376 -2.789329226 -1.813351653

