19

C -4.015721626 -3.139309414 -0.564773055
C -1.936287219 -2.047613309 1.095857339
C -2.050547430 0.856230126 1.258425980
C 0.176936512 2.048264358 2.434569618
O 2.297373479 2.224249657 1.202016181
C 2.875776543 1.444462336 -1.053297399
C 5.384138208 2.198484545 -2.059464462
H -3.844752321 -2.464905259 -2.509903323
H -3.946516095 -5.200158403 -0.607838496
H -5.884179507 -2.585256927 0.120315593
H -0.089782135 -2.640551749 0.380155883
H -3.737493847 1.412150192 2.311260604
H -2.281767724 1.622647371 -0.670392815
H -2.077202830 -2.812825702 3.008595225
H 0.261734627 2.871998545 4.295063909
H 1.440250382 0.506793990 -2.164384532
H 6.726078649 2.470713351 -0.516789620
H 6.137129780 0.735939817 -3.305401733
H 5.327250100 3.961977022 -3.150750194

