15

C 1.532583005 2.009602413 0.367581116
C 2.059121458 -0.560051990 -1.123865612
C 0.829562198 -2.719162107 0.344916006
O -1.229796629 -1.923072194 1.836979900
C -2.763960087 -0.056800953 0.711324358
C -1.252009774 1.889480800 -0.791558029
C 0.574086816 1.134157703 -2.709337402
H 1.350393583 1.500279403 2.349760013
H 2.715251527 3.646161211 0.067656447
H 3.957656427 -1.016258824 -1.769188640
H 2.176031727 -3.576196992 1.653265885
H -3.782354509 0.846686083 2.262377490
H -4.164085593 -0.914221248 -0.556952896
H -2.307351667 3.619559385 -1.141182476
H 0.244228337 -4.176409404 -1.010744074

