26

C     0.27538   2.82343  -0.62357
N    -0.06951   1.41845  -0.26414
N    -1.44638   1.27499  -0.57718
C    -1.82221  -0.03988  -0.34567
C    -1.34499  -1.03780  -1.26981
N    -0.95048  -1.87104  -1.97923
C    -3.17727  -0.22617   0.10746
N    -4.25129  -0.37317   0.53195
C    -0.44834  -0.30462   1.43973
C     0.67325  -1.37247   1.60443
C     1.24618  -1.60222   0.21854
C     1.92745  -0.47191  -0.06547
C     2.50547  -0.05836  -1.28576
N     2.99619   0.31439  -2.27448
C     1.77560   0.41492   1.16365
O     1.71076  -0.56158   2.20860
C     0.27905   0.94465   1.03833
H     1.27615   2.98590  -0.30741
H     0.21961   3.08080  -1.74193
H    -0.42035   3.55458  -0.13292
H    -2.07336   2.02912  -0.25273
H    -1.31219  -0.36244   2.13772
H     0.46127  -2.28163   2.21270
H     1.03986  -2.43815  -0.43859
H     2.56152   1.15564   1.37992
H     0.08334   1.82214   1.76744
26

C     0.27142   2.82723  -0.62936
N    -0.07796   1.42384  -0.29071
N    -1.44595   1.27596  -0.57682
C    -1.83091  -0.03596  -0.35821
C    -1.34552  -1.03651  -1.27071
N    -0.94999  -1.87130  -1.97803
C    -3.17997  -0.22361   0.10392
N    -4.25168  -0.37352   0.53326
C    -0.44137  -0.30424   1.45416
C     0.67701  -1.37504   1.60724
C     1.24636  -1.60177   0.21863
C     1.92657  -0.47104  -0.06462
C     2.50484  -0.05750  -1.28481
N     2.99580   0.31434  -2.27381
C     1.77756   0.41311   1.16907
O     1.71987  -0.56933   2.20927
C     0.28321   0.93710   1.06461
H     1.27442   2.98498  -0.30684
H     0.22133   3.08488  -1.74298
H    -0.42225   3.55469  -0.13443
H    -2.07398   2.03059  -0.25675
H    -1.31436  -0.36539   2.13334
H     0.46258  -2.28295   2.21275
H     1.03989  -2.43797  -0.43861
H     2.56229   1.15507   1.38089
H     0.08188   1.82410   1.76320
26

C     0.26745   2.83104  -0.63515
N    -0.08640   1.42924  -0.31728
N    -1.44552   1.27692  -0.57646
C    -1.83960  -0.03205  -0.37075
C    -1.34604  -1.03522  -1.27160
N    -0.94950  -1.87157  -1.97683
C    -3.18268  -0.22105   0.10037
N    -4.25207  -0.37386   0.53457
C    -0.43439  -0.30386   1.46858
C     0.68076  -1.37761   1.61005
C     1.24654  -1.60132   0.21872
C     1.92569  -0.47017  -0.06378
C     2.50422  -0.05665  -1.28386
N     2.99540   0.31429  -2.27314
C     1.77953   0.41129   1.17449
O     1.72898  -0.57708   2.20994
C     0.28737   0.92955   1.09090
H     1.27269   2.98406  -0.30627
H     0.22305   3.08897  -1.74404
H    -0.42416   3.55480  -0.13594
H    -2.07461   2.03206  -0.26077
H    -1.31653  -0.36833   2.12896
H     0.46389  -2.28426   2.21280
H     1.03992  -2.43778  -0.43864
H     2.56306   1.15450   1.38186
H     0.08042   1.82607   1.75895
26

C     0.26349   2.83484  -0.64094
N    -0.09485   1.43464  -0.34385
N    -1.44510   1.27789  -0.57610
C    -1.84830  -0.02813  -0.38329
C    -1.34656  -1.03393  -1.27250
N    -0.94901  -1.87183  -1.97563
C    -3.18538  -0.21848   0.09683
N    -4.25246  -0.37420   0.53587
C    -0.42742  -0.30348   1.48301
C     0.68452  -1.38018   1.61285
C     1.24672  -1.60088   0.21881
C     1.92481  -0.46929  -0.06294
C     2.50359  -0.05580  -1.28291
N     2.99501   0.31424  -2.27247
C     1.78149   0.40947   1.17991
O     1.73808  -0.58484   2.21061
C     0.29153   0.92200   1.11719
H     1.27095   2.98315  -0.30570
H     0.22477   3.09306  -1.74509
H    -0.42606   3.55491  -0.13744
H    -2.07523   2.03353  -0.26479
H    -1.31871  -0.37128   2.12459
H     0.46520  -2.28557   2.21284
H     1.03995  -2.43760  -0.43866
H     2.56383   1.15393   1.38283
H     0.07897   1.82804   1.75470
26

C     0.25953   2.83864  -0.64673
N    -0.10329   1.44003  -0.37042
N    -1.44467   1.27885  -0.57574
C    -1.85700  -0.02422  -0.39584
C    -1.34708  -1.03263  -1.27339
N    -0.94852  -1.87209  -1.97443
C    -3.18808  -0.21592   0.09329
N    -4.25285  -0.37454   0.53718
C    -0.42044  -0.30310   1.49744
C     0.68828  -1.38275   1.61566
C     1.24689  -1.60043   0.21890
C     1.92393  -0.46842  -0.06209
C     2.50296  -0.05495  -1.28196
N     2.99462   0.31419  -2.27181
C     1.78345   0.40766   1.18533
O     1.74719  -0.59259   2.21129
C     0.29569   0.91445   1.14347
H     1.26922   2.98223  -0.30513
H     0.22649   3.09715  -1.74615
H    -0.42797   3.55502  -0.13895
H    -2.07586   2.03500  -0.26881
H    -1.32088  -0.37423   2.12021
H     0.46651  -2.28689   2.21289
H     1.03999  -2.43742  -0.43868
H     2.56460   1.15335   1.38380
H     0.07751   1.83001   1.75046
26

C     0.25556   2.84244  -0.65253
N    -0.11173   1.44543  -0.39700
N    -1.44424   1.27982  -0.57538
C    -1.86570  -0.02030  -0.40838
C    -1.34761  -1.03134  -1.27429
N    -0.94803  -1.87235  -1.97323
C    -3.19079  -0.21335   0.08974
N    -4.25323  -0.37488   0.53849
C    -0.41347  -0.30272   1.51187
C     0.69203  -1.38532   1.61847
C     1.24707  -1.59998   0.21899
C     1.92305  -0.46755  -0.06125
C     2.50233  -0.05410  -1.28101
N     2.99423   0.31414  -2.27114
C     1.78542   0.40584   1.19075
O     1.75630  -0.60034   2.21196
C     0.29985   0.90690   1.16976
H     1.26749   2.98131  -0.30456
H     0.22821   3.10124  -1.74721
H    -0.42987   3.55513  -0.14046
H    -2.07648   2.03647  -0.27283
H    -1.32305  -0.37717   2.11583
H     0.46782  -2.28820   2.21294
H     1.04002  -2.43724  -0.43871
H     2.56537   1.15278   1.38477
H     0.07605   1.83197   1.74621
26

C     0.25160   2.84624  -0.65832
N    -0.12018   1.45082  -0.42357
N    -1.44381   1.28078  -0.57502
C    -1.87439  -0.01639  -0.42092
C    -1.34813  -1.03005  -1.27519
N    -0.94754  -1.87262  -1.97203
C    -3.19349  -0.21079   0.08620
N    -4.25362  -0.37522   0.53980
C    -0.40649  -0.30234   1.52629
C     0.69579  -1.38789   1.62127
C     1.24725  -1.59954   0.21909
C     1.92217  -0.46668  -0.06040
C     2.50170  -0.05324  -1.28005
N     2.99383   0.31409  -2.27047
C     1.78738   0.40403   1.19617
O     1.76540  -0.60810   2.21263
C     0.30401   0.89935   1.19604
H     1.26575   2.98039  -0.30398
H     0.22993   3.10533  -1.74826
H    -0.43178   3.55524  -0.14196
H    -2.07710   2.03794  -0.27686
H    -1.32522  -0.38012   2.11145
H     0.46913  -2.28951   2.21298
H     1.04005  -2.43706  -0.43873
H     2.56614   1.15221   1.38574
H     0.07460   1.83394   1.74197
26

C     0.24764   2.85004  -0.66411
N    -0.12862   1.45622  -0.45014
N    -1.44338   1.28175  -0.57466
C    -1.88309  -0.01247  -0.43346
C    -1.34865  -1.02876  -1.27608
N    -0.94706  -1.87288  -1.97082
C    -3.19620  -0.20823   0.08265
N    -4.25401  -0.37557   0.54110
C    -0.39952  -0.30196   1.54072
C     0.69955  -1.39046   1.62408
C     1.24743  -1.59909   0.21918
C     1.92129  -0.46581  -0.05956
C     2.50108  -0.05239  -1.27910
N     2.99344   0.31404  -2.26980
C     1.78934   0.40221   1.20159
O     1.77451  -0.61585   2.21330
C     0.30816   0.89181   1.22233
H     1.26402   2.97947  -0.30341
H     0.23165   3.10941  -1.74932
H    -0.43369   3.55535  -0.14347
H    -2.07773   2.03941  -0.28088
H    -1.32740  -0.38307   2.10708
H     0.47043  -2.29082   2.21303
H     1.04008  -2.43688  -0.43876
H     2.56691   1.15164   1.38671
H     0.07314   1.83591   1.73772
26

C     0.24367   2.85385  -0.66990
N    -0.13707   1.46162  -0.47671
N    -1.44295   1.28272  -0.57430
C    -1.89179  -0.00856  -0.44600
C    -1.34917  -1.02746  -1.27698
N    -0.94657  -1.87314  -1.96962
C    -3.19890  -0.20566   0.07911
N    -4.25440  -0.37591   0.54241
C    -0.39254  -0.30158   1.55515
C     0.70331  -1.39303   1.62689
C     1.24761  -1.59865   0.21927
C     1.92041  -0.46494  -0.05871
C     2.50045  -0.05154  -1.27815
N     2.99305   0.31399  -2.26913
C     1.79130   0.40039   1.20701
O     1.78362  -0.62360   2.21397
C     0.31232   0.88426   1.24861
H     1.26229   2.97855  -0.30284
H     0.23338   3.11350  -1.75038
H    -0.43559   3.55545  -0.14497
H    -2.07835   2.04088  -0.28490
H    -1.32957  -0.38602   2.10270
H     0.47174  -2.29214   2.21308
H     1.04011  -2.43669  -0.43878
H     2.56768   1.15106   1.38768
H     0.07169   1.83788   1.73347
26

C     0.23971   2.85765  -0.67569
N    -0.14551   1.46701  -0.50328
N    -1.44252   1.28368  -0.57394
C    -1.90048  -0.00464  -0.45854
C    -1.34969  -1.02617  -1.27788
N    -0.94608  -1.87340  -1.96842
C    -3.20161  -0.20310   0.07557
N    -4.25479  -0.37625   0.54372
C    -0.38557  -0.30120   1.56958
C     0.70706  -1.39560   1.62970
C     1.24779  -1.59820   0.21936
C     1.91953  -0.46407  -0.05787
C     2.49982  -0.05069  -1.27720
N     2.99266   0.31394  -2.26847
C     1.79327   0.39858   1.21243
O     1.79272  -0.63135   2.21464
C     0.31648   0.87671   1.27490
H     1.26055   2.97763  -0.30227
H     0.23510   3.11759  -1.75143
H    -0.43750   3.55556  -0.14648
H    -2.07898   2.04235  -0.28892
H    -1.33174  -0.38896   2.09832
H     0.47305  -2.29345   2.21313
H     1.04014  -2.43651  -0.43880
H     2.56845   1.15049   1.38865
H     0.07023   1.83985   1.72923
26

C     0.23575   2.86145  -0.68148
N    -0.15395   1.47241  -0.52985
N    -1.44209   1.28465  -0.57358
C    -1.90918  -0.00073  -0.47108
C    -1.35022  -1.02488  -1.27877
N    -0.94559  -1.87366  -1.96722
C    -3.20431  -0.20054   0.07202
N    -4.25518  -0.37659   0.54503
C    -0.37859  -0.30082   1.58401
C     0.71082  -1.39817   1.63250
C     1.24796  -1.59775   0.21945
C     1.91865  -0.46320  -0.05702
C     2.49919  -0.04984  -1.27625
N     2.99227   0.31389  -2.26780
C     1.79523   0.39676   1.21785
O     1.80183  -0.63911   2.21531
C     0.32064   0.86916   1.30118
H     1.25882   2.97671  -0.30170
H     0.23682   3.12168  -1.75249
H    -0.43940   3.55567  -0.14799
H    -2.07960   2.04382  -0.29294
H    -1.33392  -0.39191   2.09394
H     0.47436  -2.29476   2.21317
H     1.04017  -2.43633  -0.43883
H     2.56922   1.14992   1.38962
H     0.06877   1.84181   1.72498
26

C     0.23178   2.86525  -0.68728
N    -0.16240   1.47780  -0.55643
N    -1.44166   1.28561  -0.57322
C    -1.91788   0.00319  -0.48362
C    -1.35074  -1.02359  -1.27967
N    -0.94510  -1.87393  -1.96602
C    -3.20702  -0.19797   0.06848
N    -4.25557  -0.37693   0.54634
C    -0.37162  -0.30044   1.59843
C     0.71458  -1.40074   1.63531
C     1.24814  -1.59731   0.21954
C     1.91777  -0.46233  -0.05618
C     2.49856  -0.04898  -1.27530
N     2.99187   0.31384  -2.26713
C     1.79719   0.39495   1.22327
O     1.81093  -0.64686   2.21598
C     0.32480   0.86161   1.32747
H     1.25709   2.97579  -0.30113
H     0.23854   3.12577  -1.75355
H    -0.44131   3.55578  -0.14949
H    -2.08022   2.04529  -0.29696
H    -1.33609  -0.39486   2.08956
H     0.47567  -2.29608   2.21322
H     1.04021  -2.43615  -0.43885
H     2.56999   1.14935   1.39059
H     0.06732   1.84378   1.72074
26

C     0.22782   2.86905  -0.69307
N    -0.17084   1.48320  -0.58300
N    -1.44123   1.28658  -0.57286
C    -1.92657   0.00710  -0.49617
C    -1.35126  -1.02230  -1.28057
N    -0.94461  -1.87419  -1.96482
C    -3.20972  -0.19541   0.06493
N    -4.25596  -0.37727   0.54764
C    -0.36464  -0.30006   1.61286
C     0.71833  -1.40331   1.63812
C     1.24832  -1.59686   0.21963
C     1.91689  -0.46146  -0.05533
C     2.49794  -0.04813  -1.27435
N     2.99148   0.31379  -2.26646
C     1.79915   0.39313   1.22869
O     1.82004  -0.65461   2.21666
C     0.32896   0.85406   1.35375
H     1.25535   2.97487  -0.30056
H     0.24026   3.12986  -1.75460
H    -0.44321   3.55589  -0.15100
H    -2.08085   2.04676  -0.30098
H    -1.33826  -0.39781   2.08519
H     0.47698  -2.29739   2.21327
H     1.04024  -2.43597  -0.43887
H     2.57076   1.14878   1.39156
H     0.06586   1.84575   1.71649
26

C     0.22386   2.87286  -0.69886
N    -0.17929   1.48860  -0.60957
N    -1.44081   1.28755  -0.57250
C    -1.93527   0.01101  -0.50871
C    -1.35178  -1.02100  -1.28146
N    -0.94412  -1.87445  -1.96362
C    -3.21243  -0.19284   0.06139
N    -4.25635  -0.37762   0.54895
C    -0.35767  -0.29968   1.62729
C     0.72209  -1.40588   1.64092
C     1.24850  -1.59642   0.21972
C     1.91601  -0.46059  -0.05449
C     2.49731  -0.04728  -1.27340
N     2.99109   0.31373  -2.26579
C     1.80112   0.39131   1.23411
O     1.82915  -0.66236   2.21733
C     0.33312   0.84651   1.38004
H     1.25362   2.97395  -0.29999
H     0.24198   3.13395  -1.75566
H    -0.44512   3.55600  -0.15251
H    -2.08147   2.04823  -0.30500
H    -1.34043  -0.40075   2.08081
H     0.47829  -2.29870   2.21331
H     1.04027  -2.43578  -0.43890
H     2.57153   1.14820   1.39253
H     0.06440   1.84772   1.71225
26

C     0.21989   2.87666  -0.70465
N    -0.18773   1.49399  -0.63614
N    -1.44038   1.28851  -0.57214
C    -1.94397   0.01493  -0.52125
C    -1.35231  -1.01971  -1.28236
N    -0.94363  -1.87471  -1.96242
C    -3.21513  -0.19028   0.05785
N    -4.25674  -0.37796   0.55026
C    -0.35069  -0.29930   1.64172
C     0.72585  -1.40845   1.64373
C     1.24868  -1.59597   0.21981
C     1.91513  -0.45972  -0.05365
C     2.49668  -0.04643  -1.27245
N     2.99070   0.31368  -2.26513
C     1.80308   0.38950   1.23953
O     1.83825  -0.67012   2.21800
C     0.33728   0.83896   1.40632
H     1.25189   2.97304  -0.29942
H     0.24370   3.13803  -1.75671
H    -0.44703   3.55611  -0.15401
H    -2.08210   2.04970  -0.30902
H    -1.34261  -0.40370   2.07643
H     0.47960  -2.30001   2.21336
H     1.04030  -2.43560  -0.43892
H     2.57230   1.14763   1.39351
H     0.06295   1.84969   1.70800
26

C     0.21593   2.88046  -0.71044
N    -0.19617   1.49939  -0.66271
N    -1.43995   1.28948  -0.57178
C    -1.95267   0.01884  -0.53379
C    -1.35283  -1.01842  -1.28325
N    -0.94314  -1.87498  -1.96122
C    -3.21783  -0.18772   0.05430
N    -4.25713  -0.37830   0.55157
C    -0.34372  -0.29892   1.65615
C     0.72960  -1.41103   1.64654
C     1.24886  -1.59552   0.21990
C     1.91425  -0.45885  -0.05280
C     2.49605  -0.04558  -1.27150
N     2.99031   0.31363  -2.26446
C     1.80504   0.38768   1.24495
O     1.84736  -0.67787   2.21867
C     0.34144   0.83141   1.43261
H     1.25015   2.97212  -0.29885
H     0.24542   3.14212  -1.75777
H    -0.44893   3.55622  -0.15552
H    -2.08272   2.05117  -0.31304
H    -1.34478  -0.40665   2.07205
H     0.48090  -2.30133   2.21341
H     1.04033  -2.43542  -0.43894
H     2.57307   1.14706   1.39448
H     0.06149   1.85165   1.70375
26

C     0.21197   2.88426  -0.71623
N    -0.20462   1.50478  -0.68929
N    -1.43952   1.29044  -0.57142
C    -1.96136   0.02276  -0.54633
C    -1.35335  -1.01713  -1.28415
N    -0.94265  -1.87524  -1.96002
C    -3.22054  -0.18515   0.05076
N    -4.25752  -0.37864   0.55287
C    -0.33674  -0.29854   1.67057
C     0.73336  -1.41360   1.64934
C     1.24903  -1.59508   0.21999
C     1.91337  -0.45797  -0.05196
C     2.49543  -0.04472  -1.27055
N     2.98991   0.31358  -2.26379
C     1.80701   0.38587   1.25037
O     1.85647  -0.68562   2.21934
C     0.34560   0.82386   1.45889
H     1.24842   2.97120  -0.29828
H     0.24714   3.14621  -1.75883
H    -0.45084   3.55633  -0.15703
H    -2.08335   2.05264  -0.31707
H    -1.34695  -0.40960   2.06768
H     0.48221  -2.30264   2.21345
H     1.04036  -2.43524  -0.43897
H     2.57384   1.14649   1.39545
H     0.06004   1.85362   1.69951
26

C     0.20800   2.88806  -0.72203
N    -0.21306   1.51018  -0.71586
N    -1.43909   1.29141  -0.57106
C    -1.97006   0.02667  -0.55887
C    -1.35387  -1.01583  -1.28505
N    -0.94216  -1.87550  -1.95881
C    -3.22324  -0.18259   0.04722
N    -4.25791  -0.37898   0.55418
C    -0.32977  -0.29816   1.68500
C     0.73712  -1.41617   1.65215
C     1.24921  -1.59463   0.22008
C     1.91249  -0.45710  -0.05111
C     2.49480  -0.04387  -1.26959
N     2.98952   0.31353  -2.26312
C     1.80897   0.38405   1.25579
O     1.86557  -0.69338   2.22001
C     0.34976   0.81632   1.48518
H     1.24668   2.97028  -0.29771
H     0.24886   3.15030  -1.75988
H    -0.45274   3.55644  -0.15853
H    -2.08397   2.05411  -0.32109
H    -1.34913  -0.41254   2.06330
H     0.48352  -2.30395   2.21350
H     1.04040  -2.43506  -0.43899
H     2.57461   1.14592   1.39642
H     0.05858   1.85559   1.69526
26

C     0.20404   2.89187  -0.72782
N    -0.22150   1.51558  -0.74243
N    -1.43866   1.29237  -0.57070
C    -1.97876   0.03059  -0.57141
C    -1.35439  -1.01454  -1.28594
N    -0.94168  -1.87576  -1.95761
C    -3.22595  -0.18002   0.04367
N    -4.25830  -0.37932   0.55549
C    -0.32279  -0.29778   1.69943
C     0.74087  -1.41874   1.65496
C     1.24939  -1.59419   0.22017
C     1.91161  -0.45623  -0.05027
C     2.49417  -0.04302  -1.26864
N     2.98913   0.31348  -2.26245
C     1.81093   0.38223   1.26121
O     1.87468  -0.70113   2.22068
C     0.35392   0.80877   1.51146
H     1.24495   2.96936  -0.29714
H     0.25059   3.15439  -1.76094
H    -0.45465   3.55655  -0.16004
H    -2.08459   2.05558  -0.32511
H    -1.35130  -0.41549   2.05892
H     0.48483  -2.30526   2.21355
H     1.04043  -2.43488  -0.43901
H     2.57538   1.14534   1.39739
H     0.05712   1.85756   1.69102
26

C     0.20008   2.89567  -0.73361
N    -0.22995   1.52097  -0.76900
N    -1.43823   1.29334  -0.57034
C    -1.98745   0.03450  -0.58395
C    -1.35492  -1.01325  -1.28684
N    -0.94119  -1.87602  -1.95641
C    -3.22865  -0.17746   0.04013
N    -4.25869  -0.37967   0.55680
C    -0.31582  -0.29740   1.71386
C     0.74463  -1.42131   1.65776
C     1.24957  -1.59374   0.22026
C     1.91073  -0.45536  -0.04942
C     2.49354  -0.04217  -1.26769
N     2.98874   0.31343  -2.26179
C     1.81289   0.38042   1.26663
O     1.88379  -0.70888   2.22135
C     0.35808   0.80122   1.53775
H     1.24322   2.96844  -0.29657
H     0.25231   3.15848  -1.76200
H    -0.45655   3.55666  -0.16155
H    -2.08522   2.05705  -0.32913
H    -1.35347  -0.41844   2.05454
H     0.48614  -2.30658   2.21359
H     1.04046  -2.43469  -0.43904
H     2.57615   1.14477   1.39836
H     0.05567   1.85953   1.68677
26

C     0.19611   2.89947  -0.73940
N    -0.23839   1.52637  -0.79557
N    -1.43780   1.29431  -0.56998
C    -1.99615   0.03842  -0.59649
C    -1.35544  -1.01196  -1.28774
N    -0.94070  -1.87629  -1.95521
C    -3.23136  -0.17490   0.03658
N    -4.25908  -0.38001   0.55811
C    -0.30884  -0.29702   1.72828
C     0.74839  -1.42388   1.66057
C     1.24975  -1.59329   0.22036
C     1.90985  -0.45449  -0.04858
C     2.49291  -0.04132  -1.26674
N     2.98835   0.31338  -2.26112
C     1.81486   0.37860   1.27205
O     1.89289  -0.71663   2.22203
C     0.36223   0.79367   1.56403
H     1.24148   2.96752  -0.29600
H     0.25403   3.16256  -1.76305
H    -0.45846   3.55676  -0.16305
H    -2.08584   2.05853  -0.33315
H    -1.35564  -0.42139   2.05017
H     0.48745  -2.30789   2.21364
H     1.04049  -2.43451  -0.43906
H     2.57692   1.14420   1.39933
H     0.05421   1.86149   1.68253
26

C     0.20008   2.89567  -0.73361
N    -0.22995   1.52097  -0.76900
N    -1.43823   1.29334  -0.57034
C    -1.98745   0.03450  -0.58395
C    -1.35492  -1.01325  -1.28684
N    -0.94119  -1.87602  -1.95641
C    -3.22865  -0.17746   0.04013
N    -4.25869  -0.37967   0.55680
C    -0.31582  -0.29740   1.71386
C     0.74463  -1.42131   1.65776
C     1.24957  -1.59374   0.22026
C     1.91073  -0.45536  -0.04942
C     2.49354  -0.04217  -1.26769
N     2.98874   0.31343  -2.26179
C     1.81289   0.38042   1.26663
O     1.88379  -0.70888   2.22135
C     0.35808   0.80122   1.53775
H     1.24322   2.96844  -0.29657
H     0.25231   3.15848  -1.76200
H    -0.45655   3.55666  -0.16155
H    -2.08522   2.05705  -0.32913
H    -1.35347  -0.41844   2.05454
H     0.48614  -2.30658   2.21359
H     1.04046  -2.43469  -0.43904
H     2.57615   1.14477   1.39836
H     0.05567   1.85953   1.68677
26

C     0.20404   2.89187  -0.72782
N    -0.22150   1.51558  -0.74243
N    -1.43866   1.29237  -0.57070
C    -1.97876   0.03059  -0.57141
C    -1.35439  -1.01454  -1.28594
N    -0.94168  -1.87576  -1.95761
C    -3.22595  -0.18002   0.04367
N    -4.25830  -0.37932   0.55549
C    -0.32279  -0.29778   1.69943
C     0.74087  -1.41874   1.65496
C     1.24939  -1.59419   0.22017
C     1.91161  -0.45623  -0.05027
C     2.49417  -0.04302  -1.26864
N     2.98913   0.31348  -2.26245
C     1.81093   0.38223   1.26121
O     1.87468  -0.70113   2.22068
C     0.35392   0.80877   1.51146
H     1.24495   2.96936  -0.29714
H     0.25059   3.15439  -1.76094
H    -0.45465   3.55655  -0.16004
H    -2.08459   2.05558  -0.32511
H    -1.35130  -0.41549   2.05892
H     0.48483  -2.30526   2.21355
H     1.04043  -2.43488  -0.43901
H     2.57538   1.14534   1.39739
H     0.05712   1.85756   1.69102
26

C     0.20800   2.88806  -0.72203
N    -0.21306   1.51018  -0.71586
N    -1.43909   1.29141  -0.57106
C    -1.97006   0.02667  -0.55887
C    -1.35387  -1.01583  -1.28505
N    -0.94216  -1.87550  -1.95881
C    -3.22324  -0.18259   0.04722
N    -4.25791  -0.37898   0.55418
C    -0.32977  -0.29816   1.68500
C     0.73712  -1.41617   1.65215
C     1.24921  -1.59463   0.22008
C     1.91249  -0.45710  -0.05111
C     2.49480  -0.04387  -1.26959
N     2.98952   0.31353  -2.26312
C     1.80897   0.38405   1.25579
O     1.86557  -0.69338   2.22001
C     0.34976   0.81632   1.48518
H     1.24668   2.97028  -0.29771
H     0.24886   3.15030  -1.75988
H    -0.45274   3.55644  -0.15853
H    -2.08397   2.05411  -0.32109
H    -1.34913  -0.41254   2.06330
H     0.48352  -2.30395   2.21350
H     1.04040  -2.43506  -0.43899
H     2.57461   1.14592   1.39642
H     0.05858   1.85559   1.69526
26

C     0.21197   2.88426  -0.71623
N    -0.20462   1.50478  -0.68929
N    -1.43952   1.29044  -0.57142
C    -1.96136   0.02276  -0.54633
C    -1.35335  -1.01713  -1.28415
N    -0.94265  -1.87524  -1.96002
C    -3.22054  -0.18515   0.05076
N    -4.25752  -0.37864   0.55287
C    -0.33674  -0.29854   1.67057
C     0.73336  -1.41360   1.64934
C     1.24903  -1.59508   0.21999
C     1.91337  -0.45797  -0.05196
C     2.49543  -0.04472  -1.27055
N     2.98991   0.31358  -2.26379
C     1.80701   0.38587   1.25037
O     1.85647  -0.68562   2.21934
C     0.34560   0.82386   1.45889
H     1.24842   2.97120  -0.29828
H     0.24714   3.14621  -1.75883
H    -0.45084   3.55633  -0.15703
H    -2.08335   2.05264  -0.31707
H    -1.34695  -0.40960   2.06768
H     0.48221  -2.30264   2.21345
H     1.04036  -2.43524  -0.43897
H     2.57384   1.14649   1.39545
H     0.06004   1.85362   1.69951
26

C     0.21593   2.88046  -0.71044
N    -0.19617   1.49939  -0.66271
N    -1.43995   1.28948  -0.57178
C    -1.95267   0.01884  -0.53379
C    -1.35283  -1.01842  -1.28325
N    -0.94314  -1.87498  -1.96122
C    -3.21783  -0.18772   0.05430
N    -4.25713  -0.37830   0.55157
C    -0.34372  -0.29892   1.65615
C     0.72960  -1.41103   1.64654
C     1.24886  -1.59552   0.21990
C     1.91425  -0.45885  -0.05280
C     2.49605  -0.04558  -1.27150
N     2.99031   0.31363  -2.26446
C     1.80504   0.38768   1.24495
O     1.84736  -0.67787   2.21867
C     0.34144   0.83141   1.43261
H     1.25015   2.97212  -0.29885
H     0.24542   3.14212  -1.75777
H    -0.44893   3.55622  -0.15552
H    -2.08272   2.05117  -0.31304
H    -1.34478  -0.40665   2.07205
H     0.48090  -2.30133   2.21341
H     1.04033  -2.43542  -0.43894
H     2.57307   1.14706   1.39448
H     0.06149   1.85165   1.70375
26

C     0.21989   2.87666  -0.70465
N    -0.18773   1.49399  -0.63614
N    -1.44038   1.28851  -0.57214
C    -1.94397   0.01493  -0.52125
C    -1.35231  -1.01971  -1.28236
N    -0.94363  -1.87471  -1.96242
C    -3.21513  -0.19028   0.05785
N    -4.25674  -0.37796   0.55026
C    -0.35069  -0.29930   1.64172
C     0.72585  -1.40845   1.64373
C     1.24868  -1.59597   0.21981
C     1.91513  -0.45972  -0.05365
C     2.49668  -0.04643  -1.27245
N     2.99070   0.31368  -2.26513
C     1.80308   0.38950   1.23953
O     1.83825  -0.67012   2.21800
C     0.33728   0.83896   1.40632
H     1.25189   2.97304  -0.29942
H     0.24370   3.13803  -1.75671
H    -0.44703   3.55611  -0.15401
H    -2.08210   2.04970  -0.30902
H    -1.34261  -0.40370   2.07643
H     0.47960  -2.30001   2.21336
H     1.04030  -2.43560  -0.43892
H     2.57230   1.14763   1.39351
H     0.06295   1.84969   1.70800
26

C     0.22386   2.87286  -0.69886
N    -0.17929   1.48860  -0.60957
N    -1.44081   1.28755  -0.57250
C    -1.93527   0.01101  -0.50871
C    -1.35178  -1.02100  -1.28146
N    -0.94412  -1.87445  -1.96362
C    -3.21243  -0.19284   0.06139
N    -4.25635  -0.37762   0.54895
C    -0.35767  -0.29968   1.62729
C     0.72209  -1.40588   1.64092
C     1.24850  -1.59642   0.21972
C     1.91601  -0.46059  -0.05449
C     2.49731  -0.04728  -1.27340
N     2.99109   0.31373  -2.26579
C     1.80112   0.39131   1.23411
O     1.82915  -0.66236   2.21733
C     0.33312   0.84651   1.38004
H     1.25362   2.97395  -0.29999
H     0.24198   3.13395  -1.75566
H    -0.44512   3.55600  -0.15251
H    -2.08147   2.04823  -0.30500
H    -1.34043  -0.40075   2.08081
H     0.47829  -2.29870   2.21331
H     1.04027  -2.43578  -0.43890
H     2.57153   1.14820   1.39253
H     0.06440   1.84772   1.71225
26

C     0.22782   2.86905  -0.69307
N    -0.17084   1.48320  -0.58300
N    -1.44123   1.28658  -0.57286
C    -1.92657   0.00710  -0.49617
C    -1.35126  -1.02230  -1.28057
N    -0.94461  -1.87419  -1.96482
C    -3.20972  -0.19541   0.06493
N    -4.25596  -0.37727   0.54764
C    -0.36464  -0.30006   1.61286
C     0.71833  -1.40331   1.63812
C     1.24832  -1.59686   0.21963
C     1.91689  -0.46146  -0.05533
C     2.49794  -0.04813  -1.27435
N     2.99148   0.31379  -2.26646
C     1.79915   0.39313   1.22869
O     1.82004  -0.65461   2.21666
C     0.32896   0.85406   1.35375
H     1.25535   2.97487  -0.30056
H     0.24026   3.12986  -1.75460
H    -0.44321   3.55589  -0.15100
H    -2.08085   2.04676  -0.30098
H    -1.33826  -0.39781   2.08519
H     0.47698  -2.29739   2.21327
H     1.04024  -2.43597  -0.43887
H     2.57076   1.14878   1.39156
H     0.06586   1.84575   1.71649
26

C     0.23178   2.86525  -0.68728
N    -0.16240   1.47780  -0.55643
N    -1.44166   1.28561  -0.57322
C    -1.91788   0.00319  -0.48362
C    -1.35074  -1.02359  -1.27967
N    -0.94510  -1.87393  -1.96602
C    -3.20702  -0.19797   0.06848
N    -4.25557  -0.37693   0.54634
C    -0.37162  -0.30044   1.59843
C     0.71458  -1.40074   1.63531
C     1.24814  -1.59731   0.21954
C     1.91777  -0.46233  -0.05618
C     2.49856  -0.04898  -1.27530
N     2.99187   0.31384  -2.26713
C     1.79719   0.39495   1.22327
O     1.81093  -0.64686   2.21598
C     0.32480   0.86161   1.32747
H     1.25709   2.97579  -0.30113
H     0.23854   3.12577  -1.75355
H    -0.44131   3.55578  -0.14949
H    -2.08022   2.04529  -0.29696
H    -1.33609  -0.39486   2.08956
H     0.47567  -2.29608   2.21322
H     1.04021  -2.43615  -0.43885
H     2.56999   1.14935   1.39059
H     0.06732   1.84378   1.72074
26

C     0.23575   2.86145  -0.68148
N    -0.15395   1.47241  -0.52985
N    -1.44209   1.28465  -0.57358
C    -1.90918  -0.00073  -0.47108
C    -1.35022  -1.02488  -1.27877
N    -0.94559  -1.87366  -1.96722
C    -3.20431  -0.20054   0.07202
N    -4.25518  -0.37659   0.54503
C    -0.37859  -0.30082   1.58401
C     0.71082  -1.39817   1.63250
C     1.24796  -1.59775   0.21945
C     1.91865  -0.46320  -0.05702
C     2.49919  -0.04984  -1.27625
N     2.99227   0.31389  -2.26780
C     1.79523   0.39676   1.21785
O     1.80183  -0.63911   2.21531
C     0.32064   0.86916   1.30118
H     1.25882   2.97671  -0.30170
H     0.23682   3.12168  -1.75249
H    -0.43940   3.55567  -0.14799
H    -2.07960   2.04382  -0.29294
H    -1.33392  -0.39191   2.09394
H     0.47436  -2.29476   2.21317
H     1.04017  -2.43633  -0.43883
H     2.56922   1.14992   1.38962
H     0.06877   1.84181   1.72498
26

C     0.23971   2.85765  -0.67569
N    -0.14551   1.46701  -0.50328
N    -1.44252   1.28368  -0.57394
C    -1.90048  -0.00464  -0.45854
C    -1.34969  -1.02617  -1.27788
N    -0.94608  -1.87340  -1.96842
C    -3.20161  -0.20310   0.07557
N    -4.25479  -0.37625   0.54372
C    -0.38557  -0.30120   1.56958
C     0.70706  -1.39560   1.62970
C     1.24779  -1.59820   0.21936
C     1.91953  -0.46407  -0.05787
C     2.49982  -0.05069  -1.27720
N     2.99266   0.31394  -2.26847
C     1.79327   0.39858   1.21243
O     1.79272  -0.63135   2.21464
C     0.31648   0.87671   1.27490
H     1.26055   2.97763  -0.30227
H     0.23510   3.11759  -1.75143
H    -0.43750   3.55556  -0.14648
H    -2.07898   2.04235  -0.28892
H    -1.33174  -0.38896   2.09832
H     0.47305  -2.29345   2.21313
H     1.04014  -2.43651  -0.43880
H     2.56845   1.15049   1.38865
H     0.07023   1.83985   1.72923
26

C     0.24367   2.85385  -0.66990
N    -0.13707   1.46162  -0.47671
N    -1.44295   1.28272  -0.57430
C    -1.89179  -0.00856  -0.44600
C    -1.34917  -1.02746  -1.27698
N    -0.94657  -1.87314  -1.96962
C    -3.19890  -0.20566   0.07911
N    -4.25440  -0.37591   0.54241
C    -0.39254  -0.30158   1.55515
C     0.70331  -1.39303   1.62689
C     1.24761  -1.59865   0.21927
C     1.92041  -0.46494  -0.05871
C     2.50045  -0.05154  -1.27815
N     2.99305   0.31399  -2.26913
C     1.79130   0.40039   1.20701
O     1.78362  -0.62360   2.21397
C     0.31232   0.88426   1.24861
H     1.26229   2.97855  -0.30284
H     0.23338   3.11350  -1.75038
H    -0.43559   3.55545  -0.14497
H    -2.07835   2.04088  -0.28490
H    -1.32957  -0.38602   2.10270
H     0.47174  -2.29214   2.21308
H     1.04011  -2.43669  -0.43878
H     2.56768   1.15106   1.38768
H     0.07169   1.83788   1.73347
26

C     0.24764   2.85004  -0.66411
N    -0.12862   1.45622  -0.45014
N    -1.44338   1.28175  -0.57466
C    -1.88309  -0.01247  -0.43346
C    -1.34865  -1.02876  -1.27608
N    -0.94706  -1.87288  -1.97082
C    -3.19620  -0.20823   0.08265
N    -4.25401  -0.37557   0.54110
C    -0.39952  -0.30196   1.54072
C     0.69955  -1.39046   1.62408
C     1.24743  -1.59909   0.21918
C     1.92129  -0.46581  -0.05956
C     2.50108  -0.05239  -1.27910
N     2.99344   0.31404  -2.26980
C     1.78934   0.40221   1.20159
O     1.77451  -0.61585   2.21330
C     0.30816   0.89181   1.22233
H     1.26402   2.97947  -0.30341
H     0.23165   3.10941  -1.74932
H    -0.43369   3.55535  -0.14347
H    -2.07773   2.03941  -0.28088
H    -1.32740  -0.38307   2.10708
H     0.47043  -2.29082   2.21303
H     1.04008  -2.43688  -0.43876
H     2.56691   1.15164   1.38671
H     0.07314   1.83591   1.73772
26

C     0.25160   2.84624  -0.65832
N    -0.12018   1.45082  -0.42357
N    -1.44381   1.28078  -0.57502
C    -1.87439  -0.01639  -0.42092
C    -1.34813  -1.03005  -1.27519
N    -0.94754  -1.87262  -1.97203
C    -3.19349  -0.21079   0.08620
N    -4.25362  -0.37522   0.53980
C    -0.40649  -0.30234   1.52629
C     0.69579  -1.38789   1.62127
C     1.24725  -1.59954   0.21909
C     1.92217  -0.46668  -0.06040
C     2.50170  -0.05324  -1.28005
N     2.99383   0.31409  -2.27047
C     1.78738   0.40403   1.19617
O     1.76540  -0.60810   2.21263
C     0.30401   0.89935   1.19604
H     1.26575   2.98039  -0.30398
H     0.22993   3.10533  -1.74826
H    -0.43178   3.55524  -0.14196
H    -2.07710   2.03794  -0.27686
H    -1.32522  -0.38012   2.11145
H     0.46913  -2.28951   2.21298
H     1.04005  -2.43706  -0.43873
H     2.56614   1.15221   1.38574
H     0.07460   1.83394   1.74197
26

C     0.25556   2.84244  -0.65253
N    -0.11173   1.44543  -0.39700
N    -1.44424   1.27982  -0.57538
C    -1.86570  -0.02030  -0.40838
C    -1.34761  -1.03134  -1.27429
N    -0.94803  -1.87235  -1.97323
C    -3.19079  -0.21335   0.08974
N    -4.25323  -0.37488   0.53849
C    -0.41347  -0.30272   1.51187
C     0.69203  -1.38532   1.61847
C     1.24707  -1.59998   0.21899
C     1.92305  -0.46755  -0.06125
C     2.50233  -0.05410  -1.28101
N     2.99423   0.31414  -2.27114
C     1.78542   0.40584   1.19075
O     1.75630  -0.60034   2.21196
C     0.29985   0.90690   1.16976
H     1.26749   2.98131  -0.30456
H     0.22821   3.10124  -1.74721
H    -0.42987   3.55513  -0.14046
H    -2.07648   2.03647  -0.27283
H    -1.32305  -0.37717   2.11583
H     0.46782  -2.28820   2.21294
H     1.04002  -2.43724  -0.43871
H     2.56537   1.15278   1.38477
H     0.07605   1.83197   1.74621
26

C     0.25953   2.83864  -0.64673
N    -0.10329   1.44003  -0.37042
N    -1.44467   1.27885  -0.57574
C    -1.85700  -0.02422  -0.39584
C    -1.34708  -1.03263  -1.27339
N    -0.94852  -1.87209  -1.97443
C    -3.18808  -0.21592   0.09329
N    -4.25285  -0.37454   0.53718
C    -0.42044  -0.30310   1.49744
C     0.68828  -1.38275   1.61566
C     1.24689  -1.60043   0.21890
C     1.92393  -0.46842  -0.06209
C     2.50296  -0.05495  -1.28196
N     2.99462   0.31419  -2.27181
C     1.78345   0.40766   1.18533
O     1.74719  -0.59259   2.21129
C     0.29569   0.91445   1.14347
H     1.26922   2.98223  -0.30513
H     0.22649   3.09715  -1.74615
H    -0.42797   3.55502  -0.13895
H    -2.07586   2.03500  -0.26881
H    -1.32088  -0.37423   2.12021
H     0.46651  -2.28689   2.21289
H     1.03999  -2.43742  -0.43868
H     2.56460   1.15335   1.38380
H     0.07751   1.83001   1.75046
26

C     0.26349   2.83484  -0.64094
N    -0.09485   1.43464  -0.34385
N    -1.44510   1.27789  -0.57610
C    -1.84830  -0.02813  -0.38329
C    -1.34656  -1.03393  -1.27250
N    -0.94901  -1.87183  -1.97563
C    -3.18538  -0.21848   0.09683
N    -4.25246  -0.37420   0.53587
C    -0.42742  -0.30348   1.48301
C     0.68452  -1.38018   1.61285
C     1.24672  -1.60088   0.21881
C     1.92481  -0.46929  -0.06294
C     2.50359  -0.05580  -1.28291
N     2.99501   0.31424  -2.27247
C     1.78149   0.40947   1.17991
O     1.73808  -0.58484   2.21061
C     0.29153   0.92200   1.11719
H     1.27095   2.98315  -0.30570
H     0.22477   3.09306  -1.74509
H    -0.42606   3.55491  -0.13744
H    -2.07523   2.03353  -0.26479
H    -1.31871  -0.37128   2.12459
H     0.46520  -2.28557   2.21284
H     1.03995  -2.43760  -0.43866
H     2.56383   1.15393   1.38283
H     0.07897   1.82804   1.75470
26

C     0.26745   2.83104  -0.63515
N    -0.08640   1.42924  -0.31728
N    -1.44552   1.27692  -0.57646
C    -1.83960  -0.03205  -0.37075
C    -1.34604  -1.03522  -1.27160
N    -0.94950  -1.87157  -1.97683
C    -3.18268  -0.22105   0.10037
N    -4.25207  -0.37386   0.53457
C    -0.43439  -0.30386   1.46858
C     0.68076  -1.37761   1.61005
C     1.24654  -1.60132   0.21872
C     1.92569  -0.47017  -0.06378
C     2.50422  -0.05665  -1.28386
N     2.99540   0.31429  -2.27314
C     1.77953   0.41129   1.17449
O     1.72898  -0.57708   2.20994
C     0.28737   0.92955   1.09090
H     1.27269   2.98406  -0.30627
H     0.22305   3.08897  -1.74404
H    -0.42416   3.55480  -0.13594
H    -2.07461   2.03206  -0.26077
H    -1.31653  -0.36833   2.12896
H     0.46389  -2.28426   2.21280
H     1.03992  -2.43778  -0.43864
H     2.56306   1.15450   1.38186
H     0.08042   1.82607   1.75895
26

C     0.27142   2.82723  -0.62936
N    -0.07796   1.42384  -0.29071
N    -1.44595   1.27596  -0.57682
C    -1.83091  -0.03596  -0.35821
C    -1.34552  -1.03651  -1.27071
N    -0.94999  -1.87130  -1.97803
C    -3.17997  -0.22361   0.10392
N    -4.25168  -0.37352   0.53326
C    -0.44137  -0.30424   1.45416
C     0.67701  -1.37504   1.60724
C     1.24636  -1.60177   0.21863
C     1.92657  -0.47104  -0.06462
C     2.50484  -0.05750  -1.28481
N     2.99580   0.31434  -2.27381
C     1.77756   0.41311   1.16907
O     1.71987  -0.56933   2.20927
C     0.28321   0.93710   1.06461
H     1.27442   2.98498  -0.30684
H     0.22133   3.08488  -1.74298
H    -0.42225   3.55469  -0.13443
H    -2.07398   2.03059  -0.25675
H    -1.31436  -0.36539   2.13334
H     0.46258  -2.28295   2.21275
H     1.03989  -2.43797  -0.43861
H     2.56229   1.15507   1.38089
H     0.08188   1.82410   1.76320
