13

C 5.142817253 -1.506414682 1.619733829
C 2.816919170 -1.220787964 1.427785465
C 0.673690217 -0.295068489 -0.030948385
C -0.097663049 1.913470061 -1.003337689
C -2.931796623 1.928986734 -0.910485788
O -3.601168759 -0.501498297 0.172652541
C -1.482369826 -1.721428533 0.714096681
H 6.721359455 -2.112013229 2.729493353
H 1.042689611 3.528989158 -1.491064286
H -3.726381105 3.411053467 0.295430976
H -3.849861574 2.024389747 -2.759481531
H -1.626909421 -3.739625288 0.988910443
H 1.000509242 -1.821854532 3.103262510

