10

C -1.986902985 -0.184339420 1.227341251
C -0.175162399 1.446357769 -0.188217289
O 1.239416450 0.044794200 -1.815532926
H 2.389704912 1.133932391 -2.700964158
C 0.057554992 3.933434334 0.079830516
H 1.415663590 5.014802329 -1.007941648
H -1.118328488 4.947474033 1.403500084
H -3.221134650 -1.179770325 -0.092728464
H -3.137171586 0.935390602 2.511520210
H -0.957805778 -1.609877187 2.307054206

