15

C -2.850398258 0.062319010 1.657739661
C -1.983507657 0.048021078 -1.060037996
O -0.553098251 1.926984834 -2.129055724
C 2.055118678 2.187364660 -1.217657576
C 3.464325602 -0.157004796 -0.674641637
O 1.602400599 -1.310000782 1.537168387
C -0.933877215 -1.830352347 0.783081152
H -2.116482035 1.544739689 2.861857481
H -4.740211877 -0.577708174 2.102832996
H -3.315474861 -0.729134196 -2.409878569
H 2.008919315 3.444215817 0.426273856
H 3.030903140 3.164104322 -2.748143816
H 3.054501170 -1.543097535 -2.171390276
H 2.432673296 -2.727775517 2.301312651
H -1.336135789 -3.828965606 0.615889315

