15

C -3.103501485 -0.062806371 1.630500241
C -1.908100763 0.081948578 -0.940321994
O -0.455283797 2.156886703 -1.604585482
C 2.245228112 2.097347197 -1.197354774
C 3.350876083 -0.410930999 -0.805801273
O 1.320996418 -1.190313201 2.121008023
C -0.975260762 -1.803444990 0.984343277
H -2.648237341 1.450587788 2.928489772
H -4.984255625 -0.845234490 1.799649853
H -2.980608532 -0.664022076 -2.521183608
H 2.685829984 3.390581535 0.347715503
H 3.120774678 2.840924059 -2.926469032
H 2.365971992 -1.735966385 -2.068208622
H 3.099855939 -1.825540405 1.420243322
H -1.314623354 -3.806304653 0.707318970

