11

O -2.788864769 0.869352894 -1.694545837
C -2.068914434 -0.517123648 0.479703046
C 0.735729170 -1.033868407 0.264382984
C 2.262224006 1.307841052 0.678207475
O 4.236228136 1.208931085 -0.809805073
H -4.475611026 1.485534361 -1.469606332
H -3.118105478 -2.301309211 0.589292044
H -2.426273247 0.569212929 2.206307256
H 1.181514183 -2.009668988 -1.507838232
H 1.300992287 -2.270937798 1.835053532
H 5.255085598 2.685457595 -0.502689864

