11

O -2.813529984 0.861769934 -1.493369185
C -1.694352934 -0.433463886 0.562892475
C 0.841520744 -1.427564102 -0.317999182
C 2.907350691 0.498053874 -0.417677851
O 2.543453898 2.629671594 0.740579379
H -4.080179466 1.989933161 -0.864416949
H -2.887609781 -2.013809775 1.172513739
H -1.422184770 0.831699421 2.178411156
H 0.682823773 -2.317029068 -2.174700528
H 1.552672475 -2.905371543 0.951108891
H 4.464041669 2.279530345 -0.268879039

