16

C -4.350361245 0.012741044 1.899956459
O -1.744204854 -0.016552527 1.367287376
C -1.149235903 1.034974161 -0.977407340
C 1.662531874 0.983432316 -1.332997426
N 3.323731566 1.106886631 0.561970818
C 4.277158036 -1.731839601 -0.690433493
O 6.257614031 -1.813348837 -1.823021684
H -5.093297225 1.947142240 1.913628401
H -5.413568254 -1.102261394 0.514422342
H -4.598792616 -0.818444561 3.764474242
H -1.753241392 3.027338266 -1.088912954
H -2.079508031 0.021307550 -2.531511018
H 2.347185734 1.564115240 -3.184573457
H 2.274534079 -1.899083444 -1.979371519
H 2.454130645 0.791993384 2.245853063
H 3.621054498 -2.856010480 0.925455802

