16

C 1.919253190 0.296031871 3.652347720
C 0.557045152 -0.325045385 1.230742720
C 1.601394150 -1.662456965 -0.556408863
C 2.648186791 -2.983269626 -2.346109516
C -2.060126433 0.703164294 0.965205151
C -3.260095757 1.032776693 -1.520047204
N -2.430823708 3.243498784 -0.082519294
H 2.037011039 2.341935224 3.909202394
H 3.822698896 -0.484238483 3.666053110
H 0.887883228 -0.466464570 5.271483243
H 2.490978226 -5.025984916 -2.389032944
H 3.707162118 -2.080645627 -3.850832572
H -3.267632835 0.330504765 2.584023937
H -5.289148649 0.829851458 -1.701849326
H -2.181116432 0.474973836 -3.170190563
H -0.768682875 3.880492201 -0.793220761

