16

C 5.041765830 1.487766203 3.949386041
C 3.232548709 0.251184778 2.277509925
C 1.760370554 -0.774808744 0.894536727
C -0.066847323 -2.001758028 -0.777300234
C -2.671664068 -0.845056213 -0.588748558
C -3.429966470 1.292514636 -2.204598225
N -4.326137394 -1.266719969 -2.746079763
H 4.512346244 3.452604217 4.282901518
H 6.930742130 1.468230498 3.122722608
H 5.131163236 0.530820610 5.773608438
H -0.179391644 -4.015276520 -0.323037966
H 0.567983189 -1.876719083 -2.738602325
H -3.509575094 -0.920672527 1.283723271
H -2.098097475 2.042517512 -3.568950403
H -4.753080458 2.661915387 -1.448930574
H -6.142159966 -1.486542738 -2.189901712

