16

C 3.178080301 1.555239423 3.406314412
C 2.071041567 -0.177057247 1.548196924
C 2.097591746 -1.817308607 -0.121645280
C 1.115772633 -3.395712765 -1.886624328
C -2.454752705 -0.546015709 0.034019417
C -2.361896023 1.630124960 -1.631365320
N -4.642067061 0.709178045 -0.319446806
H 2.681565061 3.514102633 2.981566246
H 5.239673805 1.419532502 3.428249635
H 2.493215624 1.144084151 5.308331712
H 0.845347269 -5.382213673 -1.466312502
H 1.160576717 -2.880611180 -3.868438715
H -1.833656136 -2.073300262 1.179604161
H -2.415935614 1.415631181 -3.667224117
H -1.450497554 3.329371699 -0.935511771
H -5.543951704 1.671218340 1.062249920

