10

O 4.181368820 -0.099974449 -0.453037499
C 1.820944894 0.120195671 -0.159844242
C -0.432571689 1.735304225 0.554140964
C -1.897924966 -0.748117269 -0.023780899
N 0.598556388 -1.935640876 -0.650319520
H -0.459352075 2.370366324 2.509919688
H -0.799480120 3.314709352 -0.710510661
H -2.828024505 -1.618970833 1.593029504
H -3.182963751 -0.664653150 -1.629834377
H 3.028390012 -2.425295560 -1.021157145

