14

C 3.612746771 1.061118125 0.324127318
C 0.767242431 0.799776826 0.428961575
O -0.137932678 -0.577580409 2.584887277
C -2.452360161 -1.212264808 1.418501845
C -1.632556906 -0.878861184 -1.353849288
O -2.786908165 0.799271532 -2.920916128
H 4.105644565 2.603356969 1.604250396
H 4.671099509 -0.622098747 0.905809888
H 4.202049321 1.633415465 -1.567154373
H 0.844894018 -1.060620787 -1.106089601
H -3.959678189 0.138856036 1.857751788
H -3.034889460 -3.126627179 1.921025847
H -1.545909561 -2.665767385 -2.431451021
H -2.543415953 2.420781288 -2.101975968

