13

N 3.333880529 -3.094889625 -1.143328204
C 1.720999811 -1.422520461 -0.598763540
O 2.287163591 1.070250888 -0.474179849
C 0.467923911 2.805737623 0.527785823
C -2.216409732 2.395030727 0.205300640
C -2.741536918 -0.208899774 -0.494537321
N -0.750239488 -2.027709126 -0.069947986
H 5.073946449 -2.315036125 -1.326820251
H 0.491787032 2.792378053 2.633640492
H 1.121454151 4.676974856 -0.026764682
H -3.144569769 0.177971515 -2.536572404
H -4.526761150 -0.908537027 0.260969836
H -1.128510011 -3.855859357 -0.437546544

