13

N 3.150239382 -2.560862358 -1.787559008
C 1.890054937 -0.891455660 -0.671608967
O 2.714680017 0.994358977 0.864496355
C 0.507418355 2.549840889 0.794921477
C -0.738149247 1.120666173 -1.342926519
C -3.029872124 -0.234407695 -0.633101621
N -0.938685094 -1.896453247 0.203778220
H 5.027173610 -2.199177489 -1.694506758
H -0.422939509 2.548829243 2.645137226
H 0.986360976 4.472994738 0.223833297
H -4.189988579 -1.034883870 -2.124989374
H -4.116479971 0.479145142 0.957654089
H -0.862017053 -3.326857324 -1.083348637

