8

C -2.175746661 -0.567661369 -0.495247347
N -2.308177251 1.837006866 -0.353638358
N 0.306950255 1.966560688 -1.172707511
N 2.029947205 1.943179447 0.961305229
C 2.108510981 -0.462522601 0.801520759
N 0.397894194 -0.846918860 -1.246478035
H -3.595071331 -2.021153761 -0.279376732
H 3.235874022 -1.852861347 1.785432688

