8

C -2.083687690 -0.563149591 -0.584183830
N -2.149426613 1.858971361 -0.247294153
N 0.265557108 2.149737321 -1.040216847
N 1.836831632 1.955373528 0.969528429
C 2.078226438 -0.462358800 0.686369448
N 0.314499749 -1.615382186 -0.900796520
H -3.750422220 -1.750824508 -0.547400859
H 3.488603027 -1.576739971 1.664806915

