13

C 3.601212393 0.479304692 0.456424587
C 1.246939695 -0.456518695 -0.908427669
C 0.076591450 -2.735684512 0.367713246
N -2.256957415 -1.931708186 0.720450583
C -2.624405438 0.561609823 -0.173009718
O -4.923754739 1.532495133 0.112684860
N -0.683082005 1.536931302 -1.136481915
H 3.137562457 1.038952885 2.386647883
H 4.381484826 2.113936649 -0.522382246
H 5.014902617 -1.014952589 0.536121197
H 1.774601193 -1.071324536 -2.818084980
H -3.648193857 -2.943701217 1.541118973
H -4.901541311 3.217672577 -0.575551259

