13

C 3.873143926 0.630175361 0.303290139
C 1.167105494 -0.121268733 -0.016266252
C 0.123347035 -2.565911630 0.570230017
N -2.422366862 -1.997553614 0.368420646
C -2.769853859 0.506210423 -0.085960164
O -5.099951178 1.424537252 -0.252669573
N -0.692424811 1.749942044 -0.350590816
H 4.089058552 1.601081023 2.108129634
H 4.467716620 1.917371854 -1.190288503
H 5.075854316 -1.039953042 0.313912233
H 1.131281634 -1.795728709 -1.710659627
H -3.824750269 -3.269907933 0.504929019
H -4.960899460 3.210009227 -0.576470195

