15

C -2.792727180 0.431722163 -1.577923960
C -3.116973891 -0.216960515 1.161539003
C -0.547047991 -0.175510770 -0.024694979
C 1.632271406 -2.120529544 -0.137644684
C 3.592176819 -0.110348195 -0.057629296
O 3.100085200 1.810815206 -1.568334582
C 0.788023806 2.307292406 -0.001130359
H -3.700185589 -0.613018330 -3.089175264
H -1.049938751 3.088550974 -1.319127592
H -3.659152284 1.225096464 2.520225347
H -3.831036254 -2.083925379 1.638773387
H 1.759626720 -3.420847502 1.453052369
H 1.654003710 -3.175307317 -1.913104380
H 5.166853133 0.028815092 1.258613969
H 1.304092629 3.199550179 1.800834050

