13

C 2.870461933 0.883645706 0.550313664
C 1.005975558 -0.709966288 -0.767822388
C -0.748544763 -2.308891511 0.520488646
N -2.378811170 -0.140523020 1.286514585
C -3.142260637 1.464313115 -0.461066491
O -2.166341740 1.991726643 -2.519840466
H 2.702073446 2.838702006 -0.088568138
H 2.680879714 0.797200146 2.595224627
H 4.759225054 0.244303302 -0.011707307
H 1.056001257 -0.690143212 -2.808663222
H -1.733043905 -3.672335939 -0.668434813
H -0.049199114 -3.178420792 2.247680844
H -4.866363133 2.470022807 0.136101968

