8

O -1.490063978 -1.977216608 0.258471202
C -3.825685967 -1.176809615 0.652598606
C 1.281339551 2.350857301 -0.200712782
O 1.122651633 4.592547846 -0.187774545
C 0.288648296 -0.150222644 -0.030658917
C 2.755747715 0.062600409 -0.421376782
H -4.856971043 -2.999197768 0.810553197
H 4.536328739 -0.896830325 -0.692913494

