8

O -1.173200616 -1.845373402 0.208159890
C -3.368902105 -0.783458493 0.366244929
C 0.361405643 2.473700970 -0.116142813
O 0.168447125 4.609204440 -0.182929608
C 0.863745321 -0.099078397 -0.059889597
C 3.337380774 -0.167382605 -0.294089630
H -4.687462572 -2.397261964 0.564062953
H 4.431554084 -1.907672306 -0.326361617

