19

C -4.178802780 -0.208348900 1.753800959
C -2.326389524 1.647469434 0.562311895
C -0.771493503 0.469574908 -1.521443542
C 1.788704673 1.475432358 -2.197518990
C 1.537530969 -1.113855411 -1.035786876
C 2.572246767 -1.598006041 1.565222449
O 5.216140497 -2.011989534 1.529261622
H -5.471199327 -0.976526406 0.338692231
H -5.314962685 0.698321191 3.217042032
H -3.185990997 -1.799201043 2.616217066
H -1.088838537 2.434146281 2.016982020
H -3.359577819 3.256513498 -0.225825541
H -1.902587865 -0.172216751 -3.108926927
H 2.313409298 1.629898193 -4.167613881
H 2.531385068 2.970356163 -1.005784204
H 1.815541165 -2.688654614 -2.318242764
H 2.101312806 -0.034507023 2.842276045
H 1.752311760 -3.314998669 2.364149351
H 5.971260071 -0.663407612 0.580160944

