19

C -4.521926003 -0.693213337 1.540832151
C -2.935497576 1.551032099 0.674320497
C -1.041001140 0.850356479 -1.329991382
C 1.472904301 1.959557231 -1.523680581
C 1.465324232 -0.784438864 -0.849168862
C 3.270146606 -1.029987930 1.101669909
O 4.577332451 -3.169904080 1.561087558
H -5.553967876 -1.534803660 -0.036513383
H -5.902116542 -0.123945474 2.962799961
H -3.325721618 -2.159800831 2.362125209
H -1.953345966 2.390701969 2.286405187
H -4.165008913 3.024239890 -0.098789364
H -1.885382721 -0.012291497 -2.995664566
H 4.218485214 1.906898444 -1.904881974
H 1.779487307 3.110176640 0.167210753
H 1.742284685 -2.060594991 -2.435735957
H 5.293149690 0.981521519 -0.666550983
H 3.166380535 0.142469230 2.773740875
H 4.601369957 -4.201379206 0.067440905

