17

C -4.136647601 -1.597325343 -0.406596251
C -2.216394500 0.445219910 0.063142515
O -2.251750350 2.415268730 -1.102013103
C -0.195135520 -0.055725926 2.020057153
C 2.309444823 -0.897679643 0.810989024
C 3.270562364 0.893332744 -1.241770047
O 3.226277237 3.449071922 -0.497129779
H -3.191399620 -3.407529789 -0.712924711
H -5.316835612 -1.815137557 1.274835190
H -5.316339219 -1.124304406 -2.021486353
H 2.178100145 0.630310609 -2.982855398
H 1.499825528 4.012016780 -0.654910591
H 0.120363876 1.701823399 3.051057144
H -0.826077996 -1.488998229 3.363141011
H 2.119206963 -2.791721298 -0.001303212
H 3.710978628 -1.032839527 2.320362791
H 5.232396696 0.427045695 -1.680712362

