17

C -3.667941022 -1.131442034 -0.923479318
C -1.467073797 0.443153154 -0.043071658
O -1.676261414 2.866328063 -0.348589331
C 0.068668377 -0.427688221 2.283898843
C 2.803105518 -0.652471011 1.341125081
C 2.765133210 0.649187008 -1.246550128
O 2.628560549 3.082750894 -1.323781458
H -3.167798207 -3.123229735 -1.083305513
H -5.181639805 -0.954518316 0.471830617
H -4.368224240 -0.431766382 -2.727134465
H 0.423846616 -0.168657017 -1.758269046
H 0.398880745 3.487299627 -0.659451622
H -0.160270356 1.003926603 3.748225508
H -0.647727005 -2.212036905 3.028295601
H 3.348567651 -2.629738151 1.111258512
H 4.183010009 0.257221545 2.572176715
H 3.811458597 -0.251176992 -2.797013325

