19

C 4.275092206 1.854953274 0.947266340
C 4.276704029 -1.787172899 -1.759771662
O 1.885224513 -1.562894873 -2.275660847
C 0.326424563 -1.187275523 -0.274193856
C -2.341172720 -0.626875276 -1.053264253
O -3.548087184 0.511695467 1.020754426
C -6.111205723 1.001952596 0.562359194
H 3.383342070 3.026599818 2.401345889
H 4.794584626 3.079305753 -0.620165142
H 5.965601229 1.035955553 1.779139427
H 4.838755897 -2.924830790 -0.151009753
H 5.515467200 -1.626386666 -3.378755156
H 0.531679661 -2.591034500 1.226534035
H 2.096056476 0.649439154 0.654097971
H -2.326950679 0.639863382 -2.700647648
H -3.379944361 -2.348927475 -1.603191318
H -7.155096878 -0.740247448 0.133943580
H -6.363371458 2.321531360 -1.019225240
H -6.894160245 1.847414231 2.267650071

