11

C -2.210362230 -1.142712777 0.163470494
C 0.505083485 -0.279982371 0.450662453
H 0.950254715 0.124153041 2.427648874
C 2.605524542 -1.723312023 -0.921727467
H 2.012672462 -3.195232231 -2.237222778
H 4.241960507 -2.348779793 0.162500214
O 3.145970321 0.606148608 -2.270394124
C 1.322662929 1.949982121 -1.210116775
H -3.496255114 0.313607760 0.851270748
H -2.561670461 -2.873151146 1.229746286
H -2.670849823 -1.504077072 -1.815587104

