12

O 2.993742923 1.389640001 1.672535309
C 2.267430069 -0.268604122 -0.031418039
C -0.488078142 -0.520702355 -0.719876465
C -2.416000753 0.790716137 0.797406221
N -1.569120425 1.854131224 -1.601879999
H 3.074091489 -1.222647436 2.065460525
H 2.606541914 -2.719631572 1.100107692
H 3.530118780 -0.650056546 -1.647153604
H -0.992048768 -2.253142984 -1.700596665
H -1.795576227 1.840596760 2.439779574
H -4.279827028 -0.053254977 0.898793372
H -2.834954452 1.521716928 -2.996396211

