13

C -4.814441471 -0.819902088 -0.911043938
C -2.874298040 0.483083728 0.705557746
C -0.488060927 -0.098467808 0.693579395
N 1.735546545 -0.732449928 0.788691673
C 3.486666908 0.330278509 -0.998988522
N 5.815689048 0.497853563 0.031937449
O 2.946970311 0.929815173 -3.124925046
H -3.954490758 -2.301422217 -2.051491122
H -6.286796920 -1.671543524 0.256931605
H -5.716920849 0.525133234 -2.188115240
H -3.443249166 2.017587867 1.938072689
H 7.247438534 1.103560675 -1.051203035
H 6.149825357 -0.221792582 1.751263151

