12

C -5.569958795 -0.314250343 0.902566400
C -2.877812288 -0.010455496 0.424744349
C -0.644207522 0.228016036 0.043522452
C 1.928137756 0.547360457 -0.483857741
C 6.002828588 -0.147316283 1.095712850
O 3.569861610 -0.238181742 1.176851926
H -6.485270433 -1.355623457 -0.625525425
H -5.865253597 -1.365245508 2.652203536
H -6.511258117 1.512494857 1.090394121
H 2.641295848 1.403595818 -2.199525558
H 6.934711802 0.674805061 -0.528350133
H 6.953976823 -0.928454929 2.713949789

