13

C 3.392904707 2.002229477 -0.889761483
O 1.434688370 1.111467610 0.685120698
C 0.442221160 -1.165250236 -0.105841085
C -2.026849395 -1.340077738 -0.606124514
O -3.188371391 -3.506107712 -1.343981572
N -3.739471162 0.596189997 -0.300998317
H 2.718095055 2.310332673 -2.823294124
H 4.973378342 0.663414094 -0.947828874
H 4.057850330 3.782833177 -0.097117939
H 1.695830927 -2.790806292 -0.130343255
H -1.928023201 -4.765809955 -1.678683420
H -5.120687369 0.627858462 -1.609715219
H -2.913045211 2.282896230 0.001710845

