12

N -2.396530659 -1.593136047 1.063952828
C 0.377976405 0.070651682 -2.419146297
C -1.937711657 0.366549817 -0.856747061
C -0.979347918 0.647948953 1.784018360
N 1.717101268 0.670020898 1.595770117
C 2.383775442 0.100524888 -0.878371008
H -1.232938884 -3.086927680 0.763726615
H 0.421328083 -0.101870090 -4.449071939
H -3.609864391 1.299858338 -1.575454069
H -1.802881323 1.808408110 3.253522590
H 2.775239106 0.054406217 3.047686440
H 4.348885633 -0.203861878 -1.347287195

