12

N -2.605129457 -2.445382593 0.252772884
C 0.268589457 -0.202656894 -2.183814129
C -1.920214248 0.013006853 -0.486049861
C -0.389064638 1.470849432 1.482241702
N 1.882882633 0.249027769 2.072189292
C 2.233344796 0.626961901 -0.629430582
H -1.154582997 -3.224963348 1.247189441
H 0.331431487 -0.569403999 -4.192533587
H -3.497227794 1.113313400 -1.229109676
H -0.856663535 3.220704076 2.447282334
H 1.688689633 -1.621838681 2.452662763
H 4.035626830 1.383096144 -1.231909588

