14

O 2.697042239 1.702911145 -1.950833707
C 1.229438639 0.419049376 -0.078747174
C 3.803130083 1.213188242 0.467780934
C 0.383046200 -2.192292593 -0.658534406
C -2.105444598 -2.331874379 -0.449172102
C -3.186846968 0.160437257 0.362437906
N -0.941581572 1.656279488 0.938930740
H 4.089533100 2.869204547 1.649356476
H 5.347760413 -0.142086523 0.468388254
H 1.668073326 -3.668471355 -1.240088512
H -3.262023882 -3.978852427 -0.805160788
H -4.392724804 -0.031854225 2.031907965
H -4.350186256 0.975958203 -1.149750287
H -1.042304447 3.489314471 0.430446881

