15

C 4.219733019 1.155999687 1.503848925
C 3.413459599 0.045806583 -0.924903019
N 1.022304587 -0.687119820 -1.157479418
C -0.878361956 -0.653579147 0.474298373
O -3.010872704 -1.928728825 -0.266482772
C -5.228315133 -0.433180672 -0.249722621
H 3.948831009 -0.170169082 3.085302213
H 6.205496140 1.691280032 1.456228375
H 3.101577933 2.847942577 1.982686477
H 0.509906652 -1.404399367 -2.856479774
H 4.577176908 -0.071892457 -2.589065991
H -0.565604610 -0.242345262 2.449669776
H -6.778914503 -1.646538687 -0.853864227
H -5.049748487 1.173701847 -1.540917888
H -5.629718832 0.280832237 1.650410112

