15

C 4.394605799 0.608095593 1.349213015
C 2.705838518 0.748466264 -0.888488847
N 0.076591677 0.393336194 -0.536739346
C -1.075635360 -0.465753466 1.420966728
O -3.531785480 -1.163229250 1.417492882
C -4.905979446 -0.716486523 -0.826222522
H 4.332787510 -1.267679949 2.231910210
H 6.347691606 0.995807187 0.825722558
H 3.840537060 1.973175712 2.822753190
H 0.693954563 -0.657984439 -2.273092860
H 3.057958330 2.122403095 -2.362065021
H -0.180487950 -0.732427856 3.240934709
H -6.858671850 -1.205158776 -0.410197918
H -4.221490181 -1.895252855 -2.380306661
H -4.779033408 1.267933078 -1.390268089

