13

O 1.007443856 3.235213393 -0.629698923
C 2.676586086 1.666909349 -0.059048915
C 2.052563825 -0.998124388 -0.201230623
C -0.857384768 -0.830266744 0.856958181
C -1.799406759 1.352186877 -0.604269011
N -2.600287355 -2.599601838 0.072518694
H 4.398247774 2.405996429 0.822485098
H 3.353433261 -2.232726043 0.803713579
H 1.762105077 -1.672500292 -2.126456368
H -0.744566568 -0.409749958 2.888777896
H -2.018991498 0.987527107 -2.604009662
H -3.188353136 2.609785288 0.225139079
H -3.542589044 -3.294840035 1.588976892

