16

C -0.934113884 -1.939717620 0.643563164
C -2.215010522 0.287060548 -0.527671344
C -1.939709853 2.681047314 0.454288119
O 1.450690759 2.136523695 -1.778051928
C 2.963637110 0.513157265 -0.448312787
C 1.762774399 -2.136072334 -0.434717605
H -2.010717333 -3.664865814 0.301386108
H -0.820200079 -1.649035639 2.688219788
H -3.234806459 0.101332368 -2.293823780
H -4.051295248 1.347592442 1.143528175
H -0.928735592 2.952001518 2.211106121
H -2.686053161 4.297879185 -0.544484634
H 3.240403960 1.088432397 1.560391534
H 4.894957410 0.362735481 -1.229111811
H 2.835775538 -3.520290087 0.669170956
H 1.671766077 -2.807408179 -2.386754388

