14

C -0.090289546 2.828515513 -1.244115972
C -0.113867734 -1.537456420 0.518301401
C -1.095679931 -2.570565194 -1.902878354
O 0.234849475 -3.276550623 2.240116573
C 0.398793213 1.027082948 0.926108759
C 1.322102229 1.962731253 3.204457080
H 0.448636686 4.716689964 -0.637361498
H 1.010584694 2.357609179 -2.929627936
H -2.081579473 2.879456350 -1.798920702
H -1.452061472 -4.588579496 -1.757841515
H 0.275767412 -2.213309428 -3.403205850
H -2.825367021 -1.583121009 -2.435811602
H 0.885316337 -2.418997046 3.741486895
H 1.601956608 0.442162975 4.638908818

