12

N -2.292158062 -1.933863513 -0.677563740
C 0.036080805 -1.544871006 -2.055415270
C -1.577158375 0.602626707 -1.442120644
C 0.538481824 1.224089996 4.013085628
N 1.763221867 0.419994844 2.033769761
C 1.101996549 0.638997415 -0.631127670
H -1.962942845 -2.213397338 1.195854615
H 0.513341343 -2.396878690 -3.840656793
H -2.679460492 1.826901764 -2.634626249
H -1.180905672 2.169923792 3.276531877
H 3.404325645 -0.518169272 2.334638538
H 2.377996698 1.867230806 -1.674619356

