15

C -3.036017268 -1.051211822 1.005999539
C -0.386233828 -0.972765076 -0.116255271
C 1.202742006 2.783604962 -1.753128424
C 2.203835853 5.318830652 -1.557121439
N 3.001792287 7.334158218 -1.508645239
N 0.611699717 1.568589695 0.202304819
C 1.391331230 -2.814213801 1.202186861
H -4.291366206 0.262492256 0.032443631
H -3.823881411 -2.949338063 0.835397880
H -2.981879184 -0.535702113 3.001934980
H -0.490607900 -1.459919520 -2.136432157
H 1.014236949 2.047740771 -3.678242902
H 3.275184389 -2.752789066 0.367223845
H 0.668411191 -4.738243065 1.034280481
H 1.555141913 -2.342788983 3.203040314

