15

C -2.676980982 0.062990921 0.592942201
C -0.173128733 -0.529482665 -0.607927672
C 1.419266390 1.594032968 -1.598271926
C 0.228357415 4.085053486 -1.500678003
N -0.658572559 6.064039595 -1.488365946
N 2.550307859 0.737388444 0.632779082
C 1.674908295 -2.578912644 1.432979471
H -2.449014438 1.477654354 2.070241683
H -3.988292800 0.797766195 -0.818409034
H -3.506737614 -1.634018968 1.420171645
H -0.193299859 -2.018816888 -2.026018766
H 2.349326963 1.297292090 -3.427269944
H 3.056884814 -3.622005635 0.338434812
H -0.016169857 -3.741603321 1.710063966
H 2.374609250 -2.092975259 3.290763574

