17

C -2.711910907 -1.217046174 -0.906616045
C -0.878402755 -0.043006538 0.988463730
O -2.052601695 -0.102340424 3.395626990
C -0.208694361 2.707305550 0.150697079
C 2.248299181 2.366971676 -1.185887538
C 3.198779738 0.037869639 -0.802226931
C 1.701467772 -1.253476636 1.054441610
H -3.084032657 -3.180302638 -0.407016205
H -1.952643195 -1.125916267 -2.822005916
H -4.493906353 -0.181496024 -0.839892650
H -0.833850742 -0.802204009 4.545073447
H -1.661615394 3.635026699 -0.988475088
H 0.024230900 3.819151918 1.874876600
H 3.210365441 3.882251007 -2.175233223
H 5.005788884 -0.631167392 -1.490079209
H 1.599278451 -4.085450536 0.500348928
H 1.119682495 -4.558975387 -0.860091158

