11

O 4.374046581 -0.406280005 -0.517168189
C 1.838736155 -0.080754026 -0.291701904
C 0.095499596 -1.863546218 -0.972615656
N -2.254118460 -0.938721698 -0.468237681
C -1.959425422 1.442063593 0.594203895
C 0.665912860 2.187962588 0.581512306
H 5.131748824 1.151995697 0.029585930
H 0.357252554 -3.746303826 -1.715932095
H -3.871452186 -1.917350689 -0.617837472
H -3.573144669 2.686207740 0.753578616
H -0.931300857 1.397929852 2.638299536

