14

C 4.362491718 0.961845880 0.654880526
N 2.522410192 0.501532331 -1.338095416
C -0.147052043 0.262797485 -0.837321829
N 0.452758707 2.435028367 -1.756645866
N -5.420587850 0.904333823 -0.089818569
C -4.313987494 -1.159303079 0.484435487
C -1.639876628 -1.561638092 0.136396123
H 3.351125508 1.677057858 2.293687096
H 5.319136694 -0.797670896 1.140824619
H 5.730744082 2.364017921 0.021128385
H 3.187439869 -0.271936729 -2.955118735
H -7.295808531 0.798403335 0.302244686
H -5.331042025 -2.776649126 1.289499200
H -0.777746569 -3.337820986 0.653904293

