14

C 4.250644895 1.090184513 0.552950172
N 2.362367207 0.497499504 -1.334322256
C -0.141007603 -0.145335038 -0.650530225
N -0.623229881 2.127658480 -1.326067857
N -4.581244147 1.014425903 -0.155254891
C -4.077528067 -1.271396644 0.521093793
C -1.524459601 -2.097284345 0.309272332
H 3.312087886 2.020786152 2.128674472
H 5.187135393 -0.617997116 1.242434758
H 5.650205977 2.376403658 -0.237725487
H 2.927861722 0.007234627 -3.081528203
H -6.422997929 1.504574146 0.008379046
H -5.518859731 -2.572360642 1.226328962
H -0.800976122 -3.934393237 0.796293494

