17

C 5.027857294 -1.256238773 0.218388864
C 2.208312180 -1.662660129 0.396055850
O 0.996677614 0.705642009 0.212421222
C -1.648827296 0.549072568 0.311949734
C -2.674138060 3.243498368 0.377584401
C -2.713672377 -0.758233691 -1.979712728
O -5.079798326 -1.286688912 -1.486461083
H 5.676098400 -0.009665647 1.726985878
H 6.023923960 -3.055101687 0.377220024
H 5.516316840 -0.395830273 -1.589582984
H 1.552269397 -2.911376469 -1.125507746
H 1.707795142 -2.560282250 2.205237066
H -2.243159239 -0.468094421 2.035949353
H -4.714088681 3.242436663 0.655064509
H -1.775317305 4.257863252 1.926787131
H -2.229298760 4.218467035 -1.383929816
H -5.817742670 -2.056259316 -2.960439240

