11

C 2.762420149 -1.308700688 -0.344856725
H 3.579361112 -2.908609910 0.605273797
C 2.641120897 1.095135047 -0.682973969
H 3.300852709 2.962389947 -0.225008820
C 0.794031850 -0.435500349 -2.181183914
C -1.967416432 -0.491939987 -1.506286502
H -3.024105001 -2.078025069 -2.279534918
N -2.743040838 0.315528969 1.140192090
C -3.331736200 1.716173299 -0.660517900
H -4.271158873 3.505357906 -0.969250620
H 1.125871915 -0.721198820 -4.197530948

