13

C 2.461096006 -0.590673188 0.805153059
C 1.976013760 1.422297568 -0.646107944
C 0.867233926 -1.035731715 -1.457504375
C -1.982304034 -0.800027933 -1.115422599
N -2.914370155 -0.195752647 1.465794736
C -2.461379521 1.670730488 -0.028056272
H 3.989025276 -1.554659749 1.743690320
H 0.790586332 -0.911746746 3.112843668
H 2.807710516 3.145359089 -1.325100487
H 1.572800005 -2.197393040 -2.998333804
H -3.285202772 -1.845322852 -2.307003523
H -0.857737447 -0.814795878 3.086150114
H -2.990683910 3.634867640 -0.126441594

