14

C 3.367679245 -0.506423207 0.104550817
C 1.266789227 1.459404324 0.011274843
C -1.192650868 0.407489959 -1.023525747
C -2.783821940 -1.343072123 0.645430062
O -4.773550841 0.543941338 0.495931088
C -3.488603783 2.167494265 -0.907295590
H 2.840767287 -2.117493378 1.285464748
H 5.101883744 0.291565882 0.882757383
H 3.794820069 -1.226358026 -1.782500967
H 1.830859663 3.058920238 -1.167312419
H -0.933165525 -0.301500058 -2.948864951
H -2.164043077 -1.586157024 2.597007244
H -3.416084920 -3.142446492 -0.133320972
H 0.936351150 2.227284463 1.903660625

