14

C 2.859860362 -0.353496024 0.879362793
C 1.143981274 1.242338458 -0.720231771
C -1.332389766 0.314392488 -1.676196767
C -2.459643316 -1.688028928 0.034208710
O -2.624470010 0.146819645 2.046194087
C -2.113717554 2.167782071 0.423968503
H 1.887064275 -0.987567868 2.585266149
H 4.524201289 0.712724853 1.457771714
H 3.489676486 -2.031695144 -0.148369598
H 2.030158476 2.558718501 -2.023660955
H -1.798116359 0.517932961 -3.656860443
H -1.307370415 -3.328894128 0.530602706
H -4.345142842 -2.300221466 -0.528425911
H 0.138941187 3.031654986 0.790854692

