12

O -1.973024458 0.873434986 2.061006403
C -1.424478935 -1.175858308 -1.006767504
C 0.393655161 0.114224930 -2.648628477
C 1.048277210 -1.555683886 -0.443783321
C 0.923858643 0.623127533 2.287225631
O 1.701402690 -0.186708702 4.262953323
H -2.477255148 2.600714849 2.343938712
H -3.280726029 -2.000661930 -1.057302428
H 0.499170476 -0.519900544 -4.600241393
H 0.721211651 2.139093798 -2.406779532
H 2.236219957 -3.177954880 -0.142462843
H 1.725600614 2.288006050 1.296277458

