12

C 2.602909784 -0.650119077 -0.601908044
C 0.743951387 1.447657125 -0.266439818
C -1.888271697 0.488920563 -0.414146708
O -2.390854489 -1.396322413 -2.180239655
C 1.860455722 -0.728212123 2.147478570
C -0.729141584 -0.049173225 2.118763255
H 4.576812531 -0.185204650 -0.897510929
H 1.907760745 -2.059704155 -1.922331251
H 1.197031027 3.427062414 -0.070566115
H -3.341426565 1.945044210 -0.363388721
H -3.156412191 -2.799248644 -1.328909873
H -1.625608591 0.687374272 3.811965271

