14

C -3.001573834 -0.088983877 0.798511068
C -1.343663097 1.076997834 -1.182210963
C 0.846666071 2.693046810 -0.353127811
O 2.677416810 1.389696523 1.283941818
C 2.619879355 -1.008908848 1.615472081
N 1.016201168 -2.556663537 0.643666456
C -1.235727572 -1.687654857 -0.704600127
H 1.111025660 -4.374199403 1.212066595
H -4.956937328 -0.335565471 0.199126470
H -1.978525130 1.612463202 -3.072911279
H 0.243835689 4.289584667 0.799263104
H 1.987296747 3.356603711 -1.940295593
H 4.110978657 -1.721053045 2.829602937
H -1.691171694 -3.016379309 -2.203806581

