14

C -2.890030236 -0.733904129 0.647454525
C -1.328751400 1.019941314 -1.024478093
C 0.936912399 2.576610995 -0.272763560
O 3.219101002 1.098376703 0.285594120
C 2.841484476 -1.136212931 1.261861747
N 0.922660576 -2.577400069 0.771999534
C -0.950992162 -1.759336590 -1.081614889
H -0.578171780 -2.607901005 2.309695892
H -4.869786145 -0.844793390 0.107660116
H -2.280541310 1.828448826 -2.655954642
H 0.619056874 3.685623133 1.432717480
H 1.514286299 3.826149234 -1.800040479
H 4.181935965 -1.677152137 2.721326959
H -1.082788541 -2.927471531 -2.757149628

