15

O -4.613695903 2.429156837 -0.234848605
C -2.072715278 1.686701887 -0.536430942
C -1.696851379 -0.628116901 1.167470419
C 0.978763823 -1.405461544 1.062089501
O 1.572602850 -3.187462829 -0.477881860
C 3.122958994 -0.072912116 2.274757860
O 4.319404148 0.407798306 0.032355210
H -4.921306882 3.886240106 -1.265416303
H -0.760431216 3.187441910 0.017309117
H -1.651895815 1.163998878 -2.494354429
H -2.912350566 -2.154336329 0.505811086
H -2.200115001 -0.100879382 3.097166481
H 2.429329823 1.596468088 3.314373434
H 4.151860104 -1.283926152 3.641533914
H 3.406168790 -2.707004422 -0.771057581

