21

C 4.163479917 -0.601580422 0.090972342
C 1.584069028 -0.569650306 -1.195648843
C -0.430181053 -1.799433291 0.469851866
C -2.865641771 -2.367889497 -0.708508118
C -4.913618607 -2.619822814 1.145228021
C 0.774156561 2.088168533 -2.022181866
C 0.501835122 4.026066195 0.094951160
H 4.118591192 0.366796464 1.914946315
H 4.796079173 -2.536374984 0.436548183
H 5.589537057 0.329082369 -1.075568672
H 1.691564983 -1.710280113 -2.917131252
H 0.113463938 -3.794082093 0.847045585
H -0.534007860 -0.930482511 2.363684592
H -1.024274003 1.911954671 -3.029390338
H -4.384904040 -2.916962368 3.134118412
H -5.739120010 -0.705614797 1.010065379
H -6.419823756 -3.898378610 0.561273773
H 2.144378493 2.787545986 -3.404706501
H 2.283636625 4.341776578 1.086419744
H -0.898688247 3.448349366 1.498245869
H -0.111870634 5.843007023 -0.663383197

