11

O -3.310810129 2.658757409 2.330984715
C -1.997245097 1.532762982 0.999373422
C -2.130466688 -1.257858589 -0.882499625
N -0.216483888 -2.126452475 0.591362673
C 2.901424019 0.430614462 -0.664005730
C 1.029435790 0.203636415 1.172142464
H -3.703849088 -2.538024432 -1.257779637
H -1.629938388 -0.146683433 -2.582182682
H 2.539292381 -0.245679816 -2.556707341
H 4.801481446 1.054259629 -0.221598243
H 1.650399397 0.428169100 3.124102013

