16

C -4.111858929 0.420754703 2.796881025
C -1.457191795 -0.080849211 2.165370383
C 1.705787194 -2.294592199 -2.405240992
C -0.500962314 1.737707881 0.329491627
O 2.127180303 1.750344404 -0.144810526
C 3.301064944 -0.267441147 -1.239667292
N 5.677468546 -0.365337898 -1.326312047
H -3.921401200 1.286893532 4.683232571
H -5.193870793 1.723813292 1.593792217
H -5.165626171 -1.314981760 3.151988645
H 2.959868372 -3.651649410 -3.297832189
H 0.572512353 -3.248421123 -0.969484209
H 0.428339081 -1.519062751 -3.830269687
H -0.956200002 3.682387601 0.897887249
H -1.597502562 1.416151366 -1.418425859
H 6.439983695 1.161538890 -0.438417803

