16

C -2.651454675 -0.546431127 2.390900995
C -0.497231541 0.714328872 1.193580708
C 0.667030709 -2.159044336 -1.731045179
C -0.567825907 2.797771634 -0.641479589
O 1.859875104 2.355045105 -1.666340258
C 2.328071929 -0.006425220 -0.404781301
N 4.523121689 -0.743775510 0.277772903
H -3.183506215 0.758190757 3.917219463
H -4.324116842 -0.808578830 1.197934467
H -2.113758523 -2.318129588 3.290169274
H 0.899589722 -3.879496523 -0.637478529
H -1.327045242 -1.810786179 -2.106782940
H 1.612443228 -2.325799023 -3.550634119
H -0.633684620 4.566657747 0.451989154
H -2.039521748 2.867739159 -2.100693694
H 5.702589280 0.756797991 0.454068949

