13

C -3.007030041 1.421899365 1.393251343
C 0.587437995 -0.303675643 -0.816681560
C 1.906143026 -2.765120662 -1.294205808
C 1.650326889 1.781921973 0.333300294
O 0.309681873 3.505438805 1.269427908
H -3.954736120 -0.057058844 0.349049517
H -2.492838151 0.931169445 3.304566776
H -3.815230774 3.278275187 1.137981186
H -0.924037033 0.219646212 -2.102300547
H 2.354786798 -3.063248618 -3.290468777
H 0.730196411 -4.358118627 -0.699617127
H 3.661298824 -2.885243126 -0.216619495
H 3.709280539 2.032704939 0.419276105

