18

C 3.889681580 0.781647209 -2.284528689
C 2.301670452 -1.006575414 -0.754956207
C 2.361093305 -1.045971233 2.048252037
N 0.229521127 0.036424717 0.708889767
C -2.161296153 -1.224405788 0.758195028
C -4.204730465 0.495565899 0.247553329
O -3.777001898 2.748027825 -0.762751554
H 2.978734037 1.221706806 -4.084344309
H 5.740337693 -0.038029397 -2.689004006
H 4.172857796 2.546712863 -1.256721900
H 1.903289804 -2.813854866 -1.651659542
H 3.559056685 0.274610994 3.060791010
H 2.044682098 -2.839291355 2.991645100
H -2.340454964 -3.166315339 0.117580366
H -3.689101212 -0.067639364 2.792605954
H -6.063806573 -0.281673751 -0.113058837
H -5.059713277 1.404117609 3.047206619
H -1.951791874 2.977688395 -0.612769699

