14

C 3.333120822 0.179777111 -0.354665821
C 1.486769619 0.222626178 1.745171355
C -1.016310772 1.065611686 1.091390366
O -1.587017019 2.533443131 -1.075828396
C -1.973295388 -1.814640087 0.698878301
O -2.589215412 -2.214845095 -1.822801247
H 4.852177016 -1.175497087 -0.053255033
H 2.612666951 -0.013265027 -2.292958039
H 4.203505941 2.066589655 -0.201107186
H -0.531969545 -3.202931258 1.217148994
H -2.074691837 1.915861925 2.632923643
H -0.234585008 2.377946563 -2.275954095
H -3.564537174 -2.092532439 1.985964226
H -3.371945849 -0.684738387 -2.432535384

