9

O 3.054836804 -0.820157957 -0.660803116
C 1.471494754 1.018070504 -0.572808983
C 0.327278115 3.108380021 -0.672758072
O -1.272052209 1.498451546 -2.057262421
C -2.180998777 -2.550298241 1.310522289
N -0.862828445 -3.993102493 2.241781176
H 2.445566198 -2.226081747 0.359860073
H 0.212846581 5.098485884 -0.263558440
H -3.218277422 -1.104855496 0.311304713

