10

O 3.173003892 -0.508271604 0.007382045
C 0.742109528 0.324064390 -0.666363843
C -1.135390768 -1.425026578 0.599175273
N -2.966783825 -2.287684929 -0.641738746
N 0.002850841 4.994476964 0.834907458
C 0.297655864 2.950019195 0.179727694
H 4.416473011 0.613050909 -0.690188339
H -0.731151497 -1.826043148 2.587509877
H -4.076960941 -3.419745886 0.446500690
H 0.404195146 0.244584796 -2.706048750

