9

O -0.238601734 3.918845988 1.437160490
C 0.160550980 1.787359282 0.705922897
C 2.212581014 0.117059104 0.503701529
O 0.392049007 -2.078356054 -0.381389572
C -1.672433396 -0.146186227 -0.482241799
H 3.612393430 -0.552889059 1.828301068
H 0.888576908 -2.575326208 -2.061679372
H -2.291500853 0.158818007 -2.420230262
H -3.196113485 -0.807259555 0.725717117

