14

C 3.559882250 -0.076449834 -1.542062854
C 1.152171139 0.023153019 0.036036832
O 0.782136554 2.071309681 1.403253210
C -1.132297929 -0.963526867 -1.112033621
C -3.534029984 -0.097054992 -0.035958257
O -3.012025966 2.275143232 -1.158150403
H 5.180679616 0.180751605 -0.301655356
H 3.762173293 -1.864015305 -2.556250311
H 3.526767048 1.480585546 -2.891941392
H -1.072002362 -2.162377756 -2.780935081
H 1.112715415 -1.904475210 1.175048069
H -3.603618165 -0.041857623 2.025788087
H -5.222955964 -0.951925970 -0.837789838
H -1.414275718 2.816067187 0.009662529

