16

C 2.918047354 -1.109603169 1.723753142
C 0.831993217 -0.457331391 -0.081557575
C 1.263098743 0.781872162 -2.541166952
C -0.542596703 2.047790622 0.025338865
C -3.078531513 0.590134956 0.265610248
N -3.490818504 -1.143241522 -1.792864092
C -1.750936078 -1.875335652 0.164514832
H 2.185471608 -1.399214053 3.632390115
H 4.341378583 0.381408677 1.790218873
H 3.846672642 -2.856624301 1.136742055
H 3.003774364 1.897765605 -2.381823506
H -0.438042673 2.619315555 -2.271008663
H 0.092676345 3.571325203 1.227458395
H -4.661003571 1.250886350 1.375701155
H -2.552826883 -0.638692319 -3.396995946
H -2.055567809 -3.605429789 1.211107785

