14

C 3.609137356 0.131306221 1.039397764
C 1.450175488 1.090839057 -0.552487945
H 2.110969760 2.518950632 -1.891289023
C -0.202114637 -0.871640257 -1.831606993
H 0.336599567 -1.170282520 -3.795231746
H -0.058947399 -2.680258372 -0.847265322
C -2.852543286 0.253043115 -1.524168300
H -4.358370962 -1.122841154 -1.242091962
H -3.425044810 1.415174472 -3.143964622
C -2.713928133 2.071664950 0.669063355
O -0.345251772 2.453397979 1.118351523
H 4.559520932 1.684152079 2.003073353
H 4.987671475 -0.834761817 -0.152547234
H 2.925287991 -1.203000917 2.456005159

