12

N -3.104287744 -1.779276036 -2.245949741
C -1.355849865 -0.450745658 -1.402288524
C -0.900941273 1.658011271 0.376995449
C 0.779480846 0.860729734 2.530422196
C -0.428505471 -2.314161598 -3.173013039
N 2.825202860 1.998292497 2.971231787
H 0.015544188 3.220059415 -0.609224383
H -2.725069202 2.294759988 1.112255059
H 0.095812781 -0.737187811 3.658380142
H -0.009129985 -1.795389182 -5.113279681
H 0.437126477 -4.051475377 -2.507933075
H 3.720219880 1.244125288 4.497683859

