12

N -5.456312688 -0.811899003 -2.230994562
C -3.800440114 0.228834363 -1.297058312
C -1.673401219 1.510440800 -0.087656779
C 0.256791652 -0.339658599 0.922618000
C 2.337964210 -1.268103494 -0.679858604
N 2.787803744 0.679841200 1.225185376
H -0.770931857 2.759667895 -1.458589267
H -2.399570302 2.698314498 1.436287097
H -0.449494848 -1.620734628 2.360847849
H 2.485612972 -0.628389608 -2.620379622
H 3.034507131 -3.164035555 -0.341822033
H 3.647471320 -0.044277889 2.771420877

