12

O 3.561837039 -3.062362091 -0.259007904
C 2.777896496 -0.684931839 0.313842559
C 0.440984013 0.169941521 0.168092159
C -2.106887536 -0.866206897 -0.571171535
O -3.247685264 1.537898653 -0.036687426
C -0.864941745 2.643287203 0.684155256
H 4.336697996 0.491595130 0.927325591
H 2.146672790 -4.063739302 -0.795319699
H -2.339113523 -1.401949564 -2.559244450
H -2.873005354 -2.368450425 0.632556813
H -0.881846611 3.281263146 2.651518208
H -0.354286326 4.223531104 -0.548705375

