15

C 3.172301878 -1.677675648 0.053414923
C 1.690838270 0.739886133 0.172455310
N 0.425949786 1.599248404 -2.111875392
C -1.128172184 0.826141548 0.043965782
C -2.777604855 -1.475797793 -0.282395078
C -2.290813578 2.843198779 1.495728527
N -3.219018894 4.449437242 2.621536361
H 3.266149117 -2.570676858 1.910517798
H 2.342878613 -3.003764102 -1.283165310
H 5.099712108 -1.285084176 -0.566284099
H 2.524961757 2.195013326 1.357370017
H 0.482017809 3.503624725 -2.290961109
H -1.830001141 -2.859777252 -1.469794606
H -3.208683263 -2.330854172 1.543252436
H -4.550515404 -0.952920174 -1.193765580

