11

N -4.259952287 -1.516919632 0.163944097
C -1.595698799 -0.844121687 -0.012358922
C -0.504868056 -1.758115771 -2.519834419
H -1.560147287 -0.943634343 -4.088856011
H -0.646969811 -3.813394735 -2.623602437
H 1.479546008 -1.236021046 -2.694180136
C -1.352958905 1.920164283 0.196996768
N -1.132497635 4.067156513 0.390620846
H -0.445808767 -1.624269323 1.532895414
H -4.458599976 -3.415532288 0.073756540
H -5.023194584 -0.917838391 1.809803238

