11

O -0.728522264 1.360672824 -3.008050795
C -0.780960407 1.309808729 -0.548017893
C -2.262148417 -0.658704273 0.573398615
C 0.346818960 -1.833666794 -0.334903443
C 2.308686135 -0.450783603 0.650503107
N 1.431289735 2.047545940 0.955070683
H -3.865658456 -1.309045053 -0.510939576
H -2.467421599 -0.745084486 2.610148796
H 0.022089708 -0.966669670 -2.886202785
H 4.304645066 -0.872508265 0.444898883
H 1.113909892 2.788030776 2.687623221

