14

C 4.338204145 -0.716070198 1.946684794
N 2.654009774 0.893573930 0.980469376
C 0.887225206 0.532730311 -0.749317113
O 0.274757070 -1.931532536 -1.473884937
C -2.276532219 -1.114827014 -1.882586172
C -3.467357063 -0.257273702 0.513039383
C -1.737548086 1.513722877 -0.955046078
H 2.775527309 2.709288647 1.559199155
H 5.891145094 0.059799363 3.005777757
H 4.299040667 -2.646761616 1.307724474
H -3.232666344 -1.801450706 -3.550012493
H -2.841786379 -1.067268825 2.286810552
H -5.462200677 0.188238284 0.390434406
H -2.346521004 3.307875554 -1.712484743

