14

C 4.860257617 -0.236605937 1.528875079
N 2.470882462 0.982317755 1.412080839
C 0.498512378 0.293734720 0.236003814
O 0.088416525 -2.051321424 -0.857474567
C -2.279395739 -1.128430151 -1.839652937
C -4.013084343 -0.434481560 0.243189894
C -1.944389911 1.392324943 -0.566525133
H 3.969088685 2.290200003 0.695252956
H 5.949329799 0.402521245 3.133218487
H 4.999853141 -2.198348712 0.954027365
H -2.767523015 -1.642961001 -3.752634862
H -3.877091053 -1.403631968 2.040918066
H -5.899630928 0.117766371 -0.329953759
H -2.299928143 3.286958195 -1.230513043

