19

C -4.610246095 0.212077406 0.980213885
C -2.028666386 0.044940862 -0.205947909
C -1.033211481 -2.422229725 -1.184407599
C 0.097011604 -1.258023959 1.146486314
C 2.786793553 -0.267785171 1.256880278
C 3.451360173 1.893527403 -0.498809651
O 3.306187783 1.065932051 -3.045261071
H -6.079928375 0.424886381 -0.454558426
H -5.035573519 -1.494256524 2.062785051
H -4.745954150 1.820966229 2.267954071
H -1.499365437 1.671396428 -1.335339628
H 2.159874001 3.484064132 -0.174351726
H 0.080035608 -2.377225765 -2.897064610
H -2.198295289 -4.089246127 -0.942445441
H -0.470432106 -2.176833216 2.891737434
H 4.111148052 -1.818972076 0.912969040
H 3.158535658 0.403212772 3.178094285
H 5.371276240 2.542564914 -0.060523336
H 3.711457220 2.452102893 -4.135966544

