19

C -4.842276438 0.697166266 -0.605342867
C -2.149459947 0.726532080 0.312280341
C -0.801682142 -1.823591587 0.491224102
C 1.556121547 -1.543527089 1.852668822
C 3.952795031 -1.211271889 0.477788905
C 3.049314099 1.362313957 -0.455756796
O 3.138977125 1.499487891 -3.109880426
H -5.015363389 -0.350273644 -2.378722182
H -6.180842471 -0.141203360 0.741987659
H -5.482569828 2.629627035 -0.949341165
H -1.928220715 1.831032611 2.051899473
H 0.811969452 1.739730266 -0.117865015
H -0.570905651 -2.703140367 -1.365898200
H -2.018215463 -3.066269799 1.640751476
H 1.448329282 -1.015992051 3.832691201
H 4.200435533 -2.495660362 -1.113088485
H 5.636504102 -1.172819383 1.653663899
H 4.055239598 2.899378730 0.480451737
H 1.585292739 2.258969614 -3.674590647

