10

N 5.384106423 -2.061645093 0.557315118
C 3.565345750 -0.890523081 0.412240598
C 1.276837770 0.611694482 0.115417555
N -0.796099116 -0.339278991 1.477732514
C -2.670528853 -1.893656944 0.063945857
C -3.286527923 0.400638303 0.397753410
N 1.173799206 2.647163807 -1.122197267
H -2.878211851 -3.838768239 -0.472448690
H -4.468675467 2.046115267 0.378649072
H 2.877854769 3.147374463 -1.848744409

