10

N 5.966361164 -1.372889148 0.521915654
C 3.898895091 -0.733612298 0.395092411
C 1.305461508 0.177961689 0.154787750
N -0.388966259 -1.444663837 1.106734602
C -2.862568094 -1.757336731 0.184030431
C -3.391102381 0.570126555 -0.016021400
N 0.807079616 2.355497335 -0.793089557
H -3.760290559 -3.580741878 -0.007448356
H -3.847427077 2.531754868 0.058760089
H 2.345823543 3.183446935 -1.587241972

