17

C 4.071614698 0.872836661 -3.277536757
C 2.189858418 -0.253105363 -2.075160130
C 0.838969405 -0.530386011 3.859962424
O -1.432286717 0.290186722 2.736569452
C -1.685169432 -0.320647671 0.198704475
C -4.299214579 0.445471243 -0.632667154
O 0.099333681 0.999189816 -1.303260526
H 5.679903949 -0.227475178 -3.883938967
H 2.477613478 0.460785621 3.081979375
H 4.033003266 2.877157120 -3.679315643
H 2.207423101 -2.269343455 -1.665349172
H 0.695903210 -0.121332322 5.870521114
H 1.103448727 -2.572477635 3.605911575
H -1.360174692 -2.361661168 -0.068576045
H -4.524184811 2.477294549 -0.380882199
H -4.577076677 -0.020809645 -2.618430993
H -5.710957403 -0.530881516 0.503599162

