10

C 4.000537374 -0.716844078 -0.949500034
C 1.267318294 0.102436497 -0.990433298
O 0.638443669 2.206636503 -0.387365850
C -0.635588028 -1.851886929 -1.829320141
H -2.541928039 -1.109380975 -1.632299317
H -0.290638971 -2.351705070 -3.803320511
H -0.434229659 -3.582872771 -0.723077793
H 4.264252151 -2.183551552 0.480558090
H 4.541842072 -1.537846894 -2.764140575
H 5.211023194 0.885913453 -0.513965387

