14

C 3.393509325 -0.200507765 -0.411629839
C 0.860863470 0.459302659 -1.552684494
O 0.382852541 2.640547762 -2.180702204
C -0.995729538 -1.587899257 -1.868650463
C -3.042248488 0.210193368 1.462277596
O -3.850406911 2.267739210 0.384243852
H 3.235376816 -1.669270561 1.026110949
H 4.613098580 -0.927723379 -1.912493715
H 4.269732508 1.484585964 0.376213404
H -2.245740870 -1.299420715 -3.473767260
H -0.225195601 -3.489383239 -1.735631356
H -1.171929076 0.426359895 2.371285732
H -2.729022528 -1.685977328 -0.110259000
H -2.458671487 3.386943491 -0.152318181

