12

N -1.827068816 6.200487667 -1.183125779
C -1.182157843 4.127272896 -1.090965140
C -0.436905417 1.550641795 -0.956325687
C 1.806900543 0.583327047 -1.657837718
H 3.370776903 1.646644115 -2.430691748
C 1.791370642 -2.134667436 -1.208696892
H 3.358416884 -3.382289454 -1.607885605
C -0.450760341 -2.803530310 -0.240449187
H -1.032728071 -4.688289799 0.289271924
C -2.100303220 -0.528475744 0.021052135
H -3.847796198 -0.694288855 -1.074499748
H -2.664616542 -0.196137528 1.984170573

