11

C -2.434833707 2.187520638 3.209602672
H -2.753989155 2.388017953 5.221692229
C -2.024296602 3.817748777 1.340507027
H -1.942534653 5.861322230 1.252474703
C -1.765418674 1.811805989 -0.679115262
H -3.084628016 1.887162069 -2.264631215
H 0.149102660 1.540696922 -1.392179056
C -2.411374193 -0.086147417 1.462303977
O -0.534850659 -1.942999432 1.798684354
H -1.010513584 -3.014328314 3.179580404
H -4.274758991 -0.962518528 1.223434979

