18

C 3.696324236 -3.180755265 -1.677796231
C 1.921593578 -2.163924025 0.346609805
C -1.106248262 2.550166621 1.990454593
C -2.329688627 4.747102442 0.830798721
C -2.294728184 0.150385992 1.215368116
C -0.424681516 -0.931907459 -0.780423952
H 2.757932617 -4.592004266 -2.859373361
H 5.358519965 -4.068413427 -0.840490805
H 4.354193156 -1.666824594 -2.919006390
H 1.335365102 -3.705492564 1.595255035
H 2.904714353 -0.795488451 1.536734658
H -3.685137341 5.189138937 2.362809857
H -3.461115525 4.422225375 -0.883169986
H -1.128540889 6.411274295 0.658327065
H -2.389152488 -1.196163189 2.778192333
H -4.175687755 0.333461771 0.343426146
H 0.136363828 0.558441357 -2.105096435
H -1.474431219 -2.311035859 -1.905297071

