18

C 3.253535157 -1.709185848 -1.584046446
C 1.739846787 -1.095916695 0.818596098
C -1.135215855 0.883644062 1.901592584
C -0.749370158 3.464784258 0.755605819
C -3.460148344 -0.364313100 0.951627356
C -1.437931121 -1.351962169 -0.702195299
H 2.546177013 -3.369300082 -2.586062574
H 5.216997507 -2.067278461 -1.053869438
H 3.249781821 -0.115690602 -2.896514208
H 1.747973044 -2.676792709 2.128726118
H 2.771296287 0.436342241 1.713318452
H -1.984929317 4.729517368 1.826631854
H -1.264733375 3.682068294 -1.249734014
H 1.183891213 4.152253696 0.998326400
H -4.381317793 -1.715260259 2.193613625
H -4.794789661 0.853163913 -0.032618506
H -1.281836266 -0.467078731 -2.539979580
H -1.227212901 -3.386356599 -0.734099224

