14

O -3.059120511 2.977090316 2.425748622
C -1.689126084 1.551204366 1.334524060
C -2.451227005 -0.310767880 -0.776857925
N 0.061750316 -1.489562936 -1.117578266
C 1.863913940 0.675891332 -1.172652331
C 1.094478538 1.016092698 1.595507597
C 0.802580121 -1.961865342 1.800362148
H -3.110749397 0.652981748 -2.478062477
H -3.805849380 -1.704810168 -0.119696953
H 1.436079907 2.115359084 -2.605405338
H 3.785299118 -0.025298312 -1.367932131
H 2.156055167 2.145713339 2.931999466
H 2.736010679 -2.721822804 1.639806991
H 0.171837313 -2.892849746 -2.413224141

