14

O -3.067041431 2.630688494 2.599359424
C -1.727389561 1.354323968 1.304858780
C -2.448322213 -0.182691522 -1.049030039
N -0.049767544 -1.380892950 -1.803206356
C 1.804460945 0.708164509 -1.266710123
C 1.071774026 0.817875848 1.516088927
C 1.128381509 -2.091938366 1.742892213
H -3.079434538 1.063298945 -2.569081362
H -3.919130241 -1.568848626 -0.662866414
H 1.406232004 2.351432326 -2.467822523
H 3.732866210 0.074534899 -1.587948390
H 2.098110287 1.913204082 2.916163051
H 3.076951740 -2.684677988 1.325932326
H -0.055844355 -2.984347979 -0.132197246

