9

N 1.374960703 -2.400715703 -1.470775525
C 3.022031820 -1.415326576 -0.109458228
C 5.379480675 0.051241133 -0.279370912
H 5.162848690 1.844158970 0.716691143
H 5.865979007 0.410522214 -2.247698362
H 6.914345468 -0.978762406 0.635514442
C 1.088002503 -2.644374911 1.381671366
H -0.420041255 -1.555262364 2.249849796
H 1.404572995 -4.508725831 2.180808331

