17

C -3.839429605 1.459540687 -0.015390213
C -3.371803478 -0.474224825 -1.659302596
N 0.500968077 -1.845353636 -1.199902711
C 0.931076320 -2.627515493 1.458356396
C 1.937805538 -0.414054546 0.175340808
C 4.276699872 1.047578975 -0.392970551
H -1.187282685 1.932207470 1.207125169
H -3.902839630 3.392170587 -0.693631571
H -4.810403165 1.103741068 1.752836537
H -3.926739809 -2.387993670 -1.213567453
H -2.961671341 -0.105445168 -3.624794512
H -0.600971893 -2.328416841 2.806938242
H 2.018715296 -4.347324058 1.734769527
H 0.398615975 1.630800235 1.423306625
H 4.862579448 2.194314109 1.212604089
H 3.952728135 2.274880541 -2.017343090
H 5.798082470 -0.264424539 -0.862038917

