9

N 3.588227385 1.128983727 0.133034092
C 5.767481870 1.459584264 0.145379163
C 1.036897354 0.721457845 0.114751408
C -0.228564416 -1.497644558 -0.282454926
N -2.661981470 -0.795274421 -0.089792869
N -2.891853690 1.663675328 0.388692362
N -0.652535338 2.603259951 0.516519862
H 0.390108542 -3.395754263 -0.664097797
H -4.226888807 -1.861264789 -0.255341684

