15

C 2.512374631 -1.785083788 0.039365471
C 1.180109002 0.444658226 1.253736813
C 0.540730391 2.687258901 -0.436199491
C -1.610912625 0.646510815 1.474083263
C -3.087320441 -0.976773866 -0.350241708
H 1.692552403 -2.317010851 -1.773636280
H 2.421589996 -3.433295241 1.278274869
H 4.505641798 -1.357083440 -0.277324112
H 2.163044697 1.041583044 2.960674152
H 1.361293580 4.474159376 0.148685787
H 0.635890082 2.301074092 -2.448546240
H -1.585716737 3.072781247 0.175235078
H -4.975617535 -0.221863428 -0.680741106
H -2.219617258 -1.431579581 -2.177073759
H -3.338419406 -2.766796906 0.659842001

