14

O -2.182672111 0.796477175 2.455916285
C -2.047502590 0.522582160 -0.209623313
H -3.947965326 0.662196279 -1.019117072
C -0.732961458 -1.963283487 -0.978135224
H -0.909326611 -3.391255657 0.506732385
H -1.584539135 -2.768534188 -2.684737269
C 1.954812110 -1.176452948 -1.463080409
H 3.479791877 -2.515223129 -1.727770756
C 2.182687796 1.313965805 -1.580954721
H 3.925506630 2.318862632 -1.956457116
C -0.305064989 2.627913167 -1.182234244
H -0.213973292 4.158585791 0.197961888
H -1.009281331 3.435691546 -2.951758915
H -3.133391945 -0.590096859 3.131560101

