16

O -3.826625123 0.301589575 1.302223179
C -2.154178575 0.390236892 -0.789815191
C -0.616113153 -2.093624229 -1.045800270
C 1.621594793 -1.516140177 0.640517757
C 2.177258650 1.130519564 0.384131640
C -0.242751157 2.527312179 -0.268128327
H -5.028911214 -1.026546587 1.028183355
H -3.213250712 0.770357683 -2.526320564
H -1.731754639 -3.735124792 -0.483848406
H -0.039604464 -2.350775930 -3.011672663
H 4.441962374 -1.443751099 1.417879690
H 1.561235769 -2.397714157 2.478056090
H 4.321015480 0.266863967 2.186805490
H 3.842024861 1.759722340 -0.612982860
H -0.959300041 3.655830164 1.301523546
H -0.018390739 3.778174662 -1.894406239

