25

C     0.18945   2.10386   0.56499
N    -0.18431   0.85309  -0.12627
C    -1.43606   0.60623  -0.37318
C    -1.89368  -0.58344  -1.17175
C    -2.51975   1.51222   0.13299
C    -1.38763  -0.93928   1.79381
C    -0.26138  -1.52938   1.64224
C     0.93499   0.00565  -0.40512
C     0.96260  -1.00426  -1.35963
N     1.11959  -1.82695  -2.18682
C     2.10138   0.18016   0.35028
N     3.11752   0.29496   0.93264
H     1.21573   2.38539   0.29236
H     0.13770   1.92927   1.64838
H    -0.47426   2.91069   0.27492
H    -1.81648  -0.19339  -2.19688
H    -2.96042  -0.81585  -0.98270
H    -1.32811  -1.50736  -1.10125
H    -2.30905   2.05280   1.06376
H    -2.66058   2.21330  -0.68027
H    -3.47520   0.96091   0.27947
H    -2.31493  -1.27430   1.26268
H    -1.50872   0.03058   2.31557
H    -0.09022  -2.39488   0.97837
H     0.67300  -1.13294   2.10487
25

C     0.19032   2.10265   0.56441
N    -0.18166   0.85499  -0.13111
C    -1.43916   0.59122  -0.35135
C    -1.89527  -0.58312  -1.17091
C    -2.52035   1.50937   0.13494
C    -1.38783  -0.92171   1.77050
C    -0.25275  -1.51916   1.62645
C     0.92740  -0.00420  -0.39056
C     0.96207  -1.00622  -1.35653
N     1.11990  -1.82478  -2.18625
C     2.10135   0.17805   0.35322
N     3.11833   0.29572   0.93159
H     1.21592   2.38585   0.29253
H     0.13802   1.92915   1.64839
H    -0.47401   2.91052   0.27512
H    -1.81612  -0.19031  -2.19523
H    -2.96104  -0.81629  -0.98375
H    -1.32934  -1.50794  -1.10326
H    -2.31014   2.05358   1.06357
H    -2.65800   2.21064  -0.68147
H    -3.47645   0.96193   0.27975
H    -2.31405  -1.27593   1.26476
H    -1.50865   0.03006   2.31497
H    -0.08950  -2.39429   0.97794
H     0.67197  -1.13392   2.10672
25

C     0.19119   2.10145   0.56383
N    -0.17901   0.85689  -0.13596
C    -1.44226   0.57621  -0.32952
C    -1.89685  -0.58279  -1.17008
C    -2.52094   1.50651   0.13688
C    -1.38803  -0.90414   1.74720
C    -0.24411  -1.50894   1.61067
C     0.91980  -0.01405  -0.37600
C     0.96155  -1.00818  -1.35343
N     1.12021  -1.82260  -2.18569
C     2.10132   0.17593   0.35616
N     3.11915   0.29647   0.93055
H     1.21610   2.38631   0.29271
H     0.13833   1.92902   1.64840
H    -0.47377   2.91035   0.27531
H    -1.81576  -0.18722  -2.19358
H    -2.96166  -0.81674  -0.98480
H    -1.33058  -1.50851  -1.10527
H    -2.31123   2.05437   1.06338
H    -2.65542   2.20798  -0.68267
H    -3.47769   0.96294   0.28002
H    -2.31317  -1.27756   1.26684
H    -1.50858   0.02953   2.31437
H    -0.08879  -2.39370   0.97751
H     0.67093  -1.13490   2.10856
25

C     0.19206   2.10024   0.56325
N    -0.17636   0.85880  -0.14081
C    -1.44535   0.56120  -0.30768
C    -1.89844  -0.58246  -1.16925
C    -2.52154   1.50365   0.13882
C    -1.38822  -0.88657   1.72389
C    -0.23547  -1.49872   1.59488
C     0.91220  -0.02390  -0.36144
C     0.96103  -1.01014  -1.35033
N     1.12052  -1.82043  -2.18512
C     2.10129   0.17382   0.35910
N     3.11996   0.29723   0.92950
H     1.21629   2.38676   0.29289
H     0.13865   1.92889   1.64841
H    -0.47352   2.91018   0.27551
H    -1.81540  -0.18413  -2.19193
H    -2.96228  -0.81718  -0.98585
H    -1.33182  -1.50908  -1.10729
H    -2.31232   2.05515   1.06319
H    -2.65284   2.20532  -0.68388
H    -3.47894   0.96396   0.28030
H    -2.31229  -1.27919   1.26891
H    -1.50852   0.02901   2.31378
H    -0.08808  -2.39311   0.97708
H     0.66989  -1.13588   2.11041
25

C     0.19293   2.09904   0.56267
N    -0.17371   0.86070  -0.14565
C    -1.44845   0.54619  -0.28585
C    -1.90003  -0.58214  -1.16841
C    -2.52213   1.50080   0.14076
C    -1.38842  -0.86900   1.70059
C    -0.22684  -1.48850   1.57909
C     0.90461  -0.03375  -0.34689
C     0.96051  -1.01211  -1.34724
N     1.12083  -1.81826  -2.18455
C     2.10127   0.17170   0.36203
N     3.12078   0.29798   0.92846
H     1.21647   2.38722   0.29306
H     0.13897   1.92876   1.64842
H    -0.47328   2.91001   0.27571
H    -1.81504  -0.18105  -2.19027
H    -2.96289  -0.81763  -0.98690
H    -1.33306  -1.50965  -1.10930
H    -2.31340   2.05593   1.06299
H    -2.65026   2.20266  -0.68508
H    -3.48018   0.96497   0.28058
H    -2.31141  -1.28082   1.27099
H    -1.50845   0.02848   2.31318
H    -0.08736  -2.39252   0.97665
H     0.66885  -1.13686   2.11225
25

C     0.19381   2.09783   0.56209
N    -0.17107   0.86261  -0.15050
C    -1.45154   0.53119  -0.26402
C    -1.90161  -0.58181  -1.16758
C    -2.52273   1.49794   0.14271
C    -1.38862  -0.85143   1.67728
C    -0.21820  -1.47827   1.56330
C     0.89701  -0.04359  -0.33233
C     0.95999  -1.01407  -1.34414
N     1.12114  -1.81608  -2.18398
C     2.10124   0.16959   0.36497
N     3.12159   0.29874   0.92741
H     1.21666   2.38768   0.29324
H     0.13928   1.92863   1.64843
H    -0.47303   2.90984   0.27590
H    -1.81468  -0.17796  -2.18862
H    -2.96351  -0.81807  -0.98794
H    -1.33429  -1.51022  -1.11131
H    -2.31449   2.05671   1.06280
H    -2.64767   2.20000  -0.68628
H    -3.48143   0.96599   0.28086
H    -2.31053  -1.28245   1.27307
H    -1.50838   0.02796   2.31258
H    -0.08665  -2.39193   0.97622
H     0.66781  -1.13784   2.11410
25

C     0.19468   2.09663   0.56152
N    -0.16842   0.86451  -0.15534
C    -1.45464   0.51618  -0.24218
C    -1.90320  -0.58149  -1.16674
C    -2.52332   1.49509   0.14465
C    -1.38882  -0.83386   1.65398
C    -0.20956  -1.46805   1.54751
C     0.88941  -0.05344  -0.31777
C     0.95947  -1.01603  -1.34104
N     1.12146  -1.81391  -2.18341
C     2.10121   0.16747   0.36791
N     3.12241   0.29949   0.92636
H     1.21684   2.38814   0.29342
H     0.13960   1.92850   1.64844
H    -0.47279   2.90967   0.27610
H    -1.81432  -0.17487  -2.18697
H    -2.96413  -0.81852  -0.98899
H    -1.33553  -1.51079  -1.11332
H    -2.31558   2.05749   1.06261
H    -2.64509   2.19735  -0.68748
H    -3.48267   0.96700   0.28113
H    -2.30965  -1.28408   1.27514
H    -1.50831   0.02743   2.31199
H    -0.08594  -2.39134   0.97579
H     0.66678  -1.13882   2.11594
25

C     0.19555   2.09542   0.56094
N    -0.16577   0.86641  -0.16019
C    -1.45773   0.50117  -0.22035
C    -1.90478  -0.58116  -1.16591
C    -2.52392   1.49223   0.14659
C    -1.38901  -0.81629   1.63067
C    -0.20092  -1.45783   1.53173
C     0.88181  -0.06329  -0.30321
C     0.95894  -1.01799  -1.33795
N     1.12177  -1.81174  -2.18285
C     2.10118   0.16536   0.37085
N     3.12322   0.30025   0.92532
H     1.21702   2.38860   0.29359
H     0.13991   1.92838   1.64845
H    -0.47254   2.90950   0.27630
H    -1.81396  -0.17179  -2.18532
H    -2.96475  -0.81897  -0.99004
H    -1.33677  -1.51137  -1.11533
H    -2.31667   2.05827   1.06242
H    -2.64251   2.19469  -0.68869
H    -3.48392   0.96802   0.28141
H    -2.30877  -1.28571   1.27722
H    -1.50824   0.02691   2.31139
H    -0.08522  -2.39075   0.97536
H     0.66574  -1.13980   2.11779
25

C     0.19642   2.09422   0.56036
N    -0.16312   0.86832  -0.16504
C    -1.46083   0.48616  -0.19852
C    -1.90637  -0.58083  -1.16507
C    -2.52451   1.48937   0.14854
C    -1.38921  -0.79872   1.60737
C    -0.19229  -1.44761   1.51594
C     0.87422  -0.07314  -0.28865
C     0.95842  -1.01996  -1.33485
N     1.12208  -1.80956  -2.18228
C     2.10115   0.16324   0.37378
N     3.12404   0.30101   0.92427
H     1.21721   2.38906   0.29377
H     0.14023   1.92825   1.64846
H    -0.47230   2.90933   0.27649
H    -1.81360  -0.16870  -2.18367
H    -2.96537  -0.81941  -0.99109
H    -1.33800  -1.51194  -1.11735
H    -2.31776   2.05906   1.06223
H    -2.63993   2.19203  -0.68989
H    -3.48516   0.96904   0.28169
H    -2.30789  -1.28734   1.27930
H    -1.50817   0.02638   2.31079
H    -0.08451  -2.39015   0.97493
H     0.66470  -1.14078   2.11963
25

C     0.19729   2.09301   0.55978
N    -0.16047   0.87022  -0.16988
C    -1.46393   0.47115  -0.17668
C    -1.90795  -0.58051  -1.16424
C    -2.52511   1.48652   0.15048
C    -1.38941  -0.78115   1.58406
C    -0.18365  -1.43739   1.50015
C     0.86662  -0.08299  -0.27409
C     0.95790  -1.02192  -1.33175
N     1.12239  -1.80739  -2.18171
C     2.10112   0.16113   0.37672
N     3.12485   0.30176   0.92323
H     1.21739   2.38952   0.29394
H     0.14055   1.92812   1.64847
H    -0.47205   2.90916   0.27669
H    -1.81324  -0.16561  -2.18202
H    -2.96599  -0.81986  -0.99214
H    -1.33924  -1.51251  -1.11936
H    -2.31885   2.05984   1.06203
H    -2.63735   2.18937  -0.69109
H    -3.48641   0.97005   0.28197
H    -2.30701  -1.28897   1.28137
H    -1.50810   0.02586   2.31019
H    -0.08380  -2.38956   0.97450
H     0.66366  -1.14176   2.12148
25

C     0.19816   2.09181   0.55920
N    -0.15782   0.87213  -0.17473
C    -1.46702   0.45614  -0.15485
C    -1.90954  -0.58018  -1.16340
C    -2.52570   1.48366   0.15242
C    -1.38961  -0.76358   1.56076
C    -0.17501  -1.42717   1.48436
C     0.85902  -0.09284  -0.25953
C     0.95738  -1.02388  -1.32866
N     1.12270  -1.80522  -2.18114
C     2.10109   0.15901   0.37966
N     3.12567   0.30252   0.92218
H     1.21758   2.38998   0.29412
H     0.14086   1.92799   1.64848
H    -0.47181   2.90899   0.27688
H    -1.81288  -0.16253  -2.18037
H    -2.96661  -0.82030  -0.99319
H    -1.34048  -1.51308  -1.12137
H    -2.31993   2.06062   1.06184
H    -2.63477   2.18671  -0.69229
H    -3.48766   0.97107   0.28224
H    -2.30613  -1.29059   1.28345
H    -1.50804   0.02533   2.30960
H    -0.08308  -2.38897   0.97407
H     0.66262  -1.14274   2.12332
25

C     0.19904   2.09060   0.55862
N    -0.15517   0.87403  -0.17957
C    -1.47012   0.44113  -0.13302
C    -1.91113  -0.57986  -1.16257
C    -2.52630   1.48081   0.15436
C    -1.38980  -0.74601   1.53745
C    -0.16638  -1.41695   1.46857
C     0.85143  -0.10269  -0.24497
C     0.95686  -1.02584  -1.32556
N     1.12301  -1.80304  -2.18057
C     2.10106   0.15690   0.38260
N     3.12648   0.30327   0.92113
H     1.21776   2.39044   0.29430
H     0.14118   1.92786   1.64850
H    -0.47156   2.90883   0.27708
H    -1.81252  -0.15944  -2.17872
H    -2.96722  -0.82075  -0.99424
H    -1.34172  -1.51365  -1.12338
H    -2.32102   2.06140   1.06165
H    -2.63218   2.18406  -0.69350
H    -3.48890   0.97208   0.28252
H    -2.30525  -1.29222   1.28553
H    -1.50797   0.02481   2.30900
H    -0.08237  -2.38838   0.97364
H     0.66159  -1.14372   2.12517
25

C     0.19991   2.08939   0.55804
N    -0.15252   0.87593  -0.18442
C    -1.47321   0.42612  -0.11118
C    -1.91271  -0.57953  -1.16173
C    -2.52689   1.47795   0.15631
C    -1.39000  -0.72844   1.51415
C    -0.15774  -1.40672   1.45279
C     0.84383  -0.11254  -0.23041
C     0.95634  -1.02780  -1.32246
N     1.12333  -1.80087  -2.18000
C     2.10103   0.15478   0.38553
N     3.12730   0.30403   0.92009
H     1.21795   2.39090   0.29447
H     0.14149   1.92773   1.64851
H    -0.47132   2.90866   0.27728
H    -1.81216  -0.15635  -2.17706
H    -2.96784  -0.82119  -0.99529
H    -1.34295  -1.51422  -1.12539
H    -2.32211   2.06218   1.06146
H    -2.62960   2.18140  -0.69470
H    -3.49015   0.97310   0.28280
H    -2.30437  -1.29385   1.28760
H    -1.50790   0.02428   2.30840
H    -0.08165  -2.38779   0.97321
H     0.66055  -1.14470   2.12701
25

C     0.20078   2.08819   0.55746
N    -0.14987   0.87784  -0.18926
C    -1.47631   0.41112  -0.08935
C    -1.91430  -0.57920  -1.16090
C    -2.52749   1.47509   0.15825
C    -1.39020  -0.71087   1.49084
C    -0.14910  -1.39650   1.43700
C     0.83623  -0.12239  -0.21585
C     0.95581  -1.02977  -1.31937
N     1.12364  -1.79870  -2.17944
C     2.10100   0.15267   0.38847
N     3.12811   0.30478   0.91904
H     1.21813   2.39136   0.29465
H     0.14181   1.92760   1.64852
H    -0.47107   2.90849   0.27747
H    -1.81180  -0.15327  -2.17541
H    -2.96846  -0.82164  -0.99634
H    -1.34419  -1.51480  -1.12741
H    -2.32320   2.06296   1.06126
H    -2.62702   2.17874  -0.69590
H    -3.49139   0.97411   0.28308
H    -2.30349  -1.29548   1.28968
H    -1.50783   0.02376   2.30781
H    -0.08094  -2.38720   0.97278
H     0.65951  -1.14567   2.12886
25

C     0.20165   2.08698   0.55688
N    -0.14722   0.87974  -0.19411
C    -1.47940   0.39611  -0.06752
C    -1.91588  -0.57888  -1.16006
C    -2.52809   1.47224   0.16019
C    -1.39039  -0.69330   1.46754
C    -0.14046  -1.38628   1.42121
C     0.82864  -0.13224  -0.20129
C     0.95529  -1.03173  -1.31627
N     1.12395  -1.79653  -2.17887
C     2.10097   0.15055   0.39141
N     3.12893   0.30554   0.91800
H     1.21832   2.39182   0.29483
H     0.14213   1.92748   1.64853
H    -0.47083   2.90832   0.27767
H    -1.81144  -0.15018  -2.17376
H    -2.96908  -0.82209  -0.99739
H    -1.34543  -1.51537  -1.12942
H    -2.32429   2.06375   1.06107
H    -2.62444   2.17608  -0.69710
H    -3.49264   0.97513   0.28336
H    -2.30261  -1.29711   1.29176
H    -1.50776   0.02323   2.30721
H    -0.08023  -2.38661   0.97235
H     0.65847  -1.14665   2.13070
25

C     0.20252   2.08578   0.55630
N    -0.14457   0.88165  -0.19896
C    -1.48250   0.38110  -0.04569
C    -1.91747  -0.57855  -1.15923
C    -2.52868   1.46938   0.16213
C    -1.39059  -0.67573   1.44423
C    -0.13183  -1.37606   1.40542
C     0.82104  -0.14209  -0.18674
C     0.95477  -1.03369  -1.31317
N     1.12426  -1.79435  -2.17830
C     2.10095   0.14844   0.39435
N     3.12974   0.30630   0.91695
H     1.21850   2.39228   0.29500
H     0.14244   1.92735   1.64854
H    -0.47058   2.90815   0.27787
H    -1.81108  -0.14709  -2.17211
H    -2.96970  -0.82253  -0.99844
H    -1.34667  -1.51594  -1.13143
H    -2.32537   2.06453   1.06088
H    -2.62186   2.17342  -0.69831
H    -3.49388   0.97614   0.28363
H    -2.30173  -1.29874   1.29383
H    -1.50769   0.02271   2.30661
H    -0.07951  -2.38602   0.97192
H     0.65743  -1.14763   2.13255
25

C     0.20340   2.08457   0.55572
N    -0.14192   0.88355  -0.20380
C    -1.48560   0.36609  -0.02385
C    -1.91905  -0.57823  -1.15839
C    -2.52928   1.46653   0.16408
C    -1.39079  -0.65816   1.42093
C    -0.12319  -1.36584   1.38963
C     0.81344  -0.15193  -0.17218
C     0.95425  -1.03565  -1.31007
N     1.12457  -1.79218  -2.17773
C     2.10092   0.14632   0.39728
N     3.13056   0.30705   0.91591
H     1.21868   2.39273   0.29518
H     0.14276   1.92722   1.64855
H    -0.47034   2.90798   0.27806
H    -1.81072  -0.14401  -2.17046
H    -2.97032  -0.82298  -0.99949
H    -1.34790  -1.51651  -1.13344
H    -2.32646   2.06531   1.06069
H    -2.61927   2.17076  -0.69951
H    -3.49513   0.97716   0.28391
H    -2.30085  -1.30037   1.29591
H    -1.50762   0.02218   2.30601
H    -0.07880  -2.38543   0.97149
H     0.65639  -1.14861   2.13439
25

C     0.20427   2.08337   0.55514
N    -0.13928   0.88545  -0.20865
C    -1.48869   0.35108  -0.00202
C    -1.92064  -0.57790  -1.15756
C    -2.52987   1.46367   0.16602
C    -1.39099  -0.64059   1.39762
C    -0.11455  -1.35562   1.37385
C     0.80584  -0.16178  -0.15762
C     0.95373  -1.03762  -1.30698
N     1.12488  -1.79001  -2.17716
C     2.10089   0.14421   0.40022
N     3.13137   0.30781   0.91486
H     1.21887   2.39319   0.29536
H     0.14307   1.92709   1.64856
H    -0.47010   2.90781   0.27826
H    -1.81036  -0.14092  -2.16881
H    -2.97094  -0.82342  -1.00054
H    -1.34914  -1.51708  -1.13545
H    -2.32755   2.06609   1.06050
H    -2.61669   2.16811  -0.70071
H    -3.49637   0.97817   0.28419
H    -2.29997  -1.30200   1.29799
H    -1.50755   0.02166   2.30542
H    -0.07809  -2.38484   0.97106
H     0.65536  -1.14959   2.13624
25

C     0.20514   2.08216   0.55456
N    -0.13663   0.88736  -0.21349
C    -1.49179   0.33607   0.01981
C    -1.92223  -0.57757  -1.15672
C    -2.53047   1.46081   0.16796
C    -1.39118  -0.62302   1.37432
C    -0.10591  -1.34539   1.35806
C     0.79825  -0.17163  -0.14306
C     0.95321  -1.03958  -1.30388
N     1.12520  -1.78783  -2.17660
C     2.10086   0.14209   0.40316
N     3.13219   0.30856   0.91381
H     1.21905   2.39365   0.29553
H     0.14339   1.92696   1.64857
H    -0.46985   2.90764   0.27845
H    -1.81000  -0.13783  -2.16716
H    -2.97155  -0.82387  -1.00159
H    -1.35038  -1.51765  -1.13746
H    -2.32864   2.06687   1.06030
H    -2.61411   2.16545  -0.70191
H    -3.49762   0.97919   0.28447
H    -2.29909  -1.30363   1.30006
H    -1.50749   0.02113   2.30482
H    -0.07737  -2.38425   0.97063
H     0.65432  -1.15057   2.13808
25

C     0.20601   2.08096   0.55398
N    -0.13398   0.88926  -0.21834
C    -1.49488   0.32106   0.04165
C    -1.92381  -0.57725  -1.15589
C    -2.53106   1.45796   0.16991
C    -1.39138  -0.60545   1.35101
C    -0.09728  -1.33517   1.34227
C     0.79065  -0.18148  -0.12850
C     0.95269  -1.04154  -1.30078
N     1.12551  -1.78566  -2.17603
C     2.10083   0.13998   0.40610
N     3.13300   0.30932   0.91277
H     1.21924   2.39411   0.29571
H     0.14371   1.92683   1.64858
H    -0.46961   2.90747   0.27865
H    -1.80964  -0.13475  -2.16551
H    -2.97217  -0.82431  -1.00264
H    -1.35162  -1.51823  -1.13948
H    -2.32973   2.06766   1.06011
H    -2.61153   2.16279  -0.70312
H    -3.49886   0.98021   0.28474
H    -2.29821  -1.30526   1.30214
H    -1.50742   0.02061   2.30422
H    -0.07666  -2.38366   0.97020
H     0.65328  -1.15155   2.13993
25

C     0.20688   2.07975   0.55340
N    -0.13133   0.89117  -0.22319
C    -1.49798   0.30606   0.06348
C    -1.92540  -0.57692  -1.15505
C    -2.53166   1.45510   0.17185
C    -1.39158  -0.58788   1.32771
C    -0.08864  -1.32495   1.32648
C     0.78305  -0.19133  -0.11394
C     0.95216  -1.04350  -1.29769
N     1.12582  -1.78349  -2.17546
C     2.10080   0.13786   0.40903
N     3.13382   0.31007   0.91172
H     1.21942   2.39457   0.29588
H     0.14402   1.92671   1.64859
H    -0.46936   2.90730   0.27885
H    -1.80928  -0.13166  -2.16385
H    -2.97279  -0.82476  -1.00368
H    -1.35285  -1.51880  -1.14149
H    -2.33082   2.06844   1.05992
H    -2.60895   2.16013  -0.70432
H    -3.50011   0.98122   0.28502
H    -2.29734  -1.30689   1.30422
H    -1.50735   0.02008   2.30363
H    -0.07595  -2.38307   0.96977
H     0.65224  -1.15253   2.14177
25

C     0.20601   2.08096   0.55398
N    -0.13398   0.88926  -0.21834
C    -1.49488   0.32106   0.04165
C    -1.92381  -0.57725  -1.15589
C    -2.53106   1.45796   0.16991
C    -1.39138  -0.60545   1.35101
C    -0.09728  -1.33517   1.34227
C     0.79065  -0.18148  -0.12850
C     0.95269  -1.04154  -1.30078
N     1.12551  -1.78566  -2.17603
C     2.10083   0.13998   0.40610
N     3.13300   0.30932   0.91277
H     1.21924   2.39411   0.29571
H     0.14371   1.92683   1.64858
H    -0.46961   2.90747   0.27865
H    -1.80964  -0.13475  -2.16551
H    -2.97217  -0.82431  -1.00264
H    -1.35162  -1.51823  -1.13948
H    -2.32973   2.06766   1.06011
H    -2.61153   2.16279  -0.70312
H    -3.49886   0.98021   0.28474
H    -2.29821  -1.30526   1.30214
H    -1.50742   0.02061   2.30422
H    -0.07666  -2.38366   0.97020
H     0.65328  -1.15155   2.13993
25

C     0.20514   2.08216   0.55456
N    -0.13663   0.88736  -0.21349
C    -1.49179   0.33607   0.01981
C    -1.92223  -0.57757  -1.15672
C    -2.53047   1.46081   0.16796
C    -1.39118  -0.62302   1.37432
C    -0.10591  -1.34539   1.35806
C     0.79825  -0.17163  -0.14306
C     0.95321  -1.03958  -1.30388
N     1.12520  -1.78783  -2.17660
C     2.10086   0.14209   0.40316
N     3.13219   0.30856   0.91381
H     1.21905   2.39365   0.29553
H     0.14339   1.92696   1.64857
H    -0.46985   2.90764   0.27845
H    -1.81000  -0.13783  -2.16716
H    -2.97155  -0.82387  -1.00159
H    -1.35038  -1.51765  -1.13746
H    -2.32864   2.06687   1.06030
H    -2.61411   2.16545  -0.70191
H    -3.49762   0.97919   0.28447
H    -2.29909  -1.30363   1.30006
H    -1.50749   0.02113   2.30482
H    -0.07737  -2.38425   0.97063
H     0.65432  -1.15057   2.13808
25

C     0.20427   2.08337   0.55514
N    -0.13928   0.88545  -0.20865
C    -1.48869   0.35108  -0.00202
C    -1.92064  -0.57790  -1.15756
C    -2.52987   1.46367   0.16602
C    -1.39099  -0.64059   1.39762
C    -0.11455  -1.35562   1.37385
C     0.80584  -0.16178  -0.15762
C     0.95373  -1.03762  -1.30698
N     1.12488  -1.79001  -2.17716
C     2.10089   0.14421   0.40022
N     3.13137   0.30781   0.91486
H     1.21887   2.39319   0.29536
H     0.14307   1.92709   1.64856
H    -0.47010   2.90781   0.27826
H    -1.81036  -0.14092  -2.16881
H    -2.97094  -0.82342  -1.00054
H    -1.34914  -1.51708  -1.13545
H    -2.32755   2.06609   1.06050
H    -2.61669   2.16811  -0.70071
H    -3.49637   0.97817   0.28419
H    -2.29997  -1.30200   1.29799
H    -1.50755   0.02166   2.30542
H    -0.07809  -2.38484   0.97106
H     0.65536  -1.14959   2.13624
25

C     0.20340   2.08457   0.55572
N    -0.14192   0.88355  -0.20380
C    -1.48560   0.36609  -0.02385
C    -1.91905  -0.57823  -1.15839
C    -2.52928   1.46653   0.16408
C    -1.39079  -0.65816   1.42093
C    -0.12319  -1.36584   1.38963
C     0.81344  -0.15193  -0.17218
C     0.95425  -1.03565  -1.31007
N     1.12457  -1.79218  -2.17773
C     2.10092   0.14632   0.39728
N     3.13056   0.30705   0.91591
H     1.21868   2.39273   0.29518
H     0.14276   1.92722   1.64855
H    -0.47034   2.90798   0.27806
H    -1.81072  -0.14401  -2.17046
H    -2.97032  -0.82298  -0.99949
H    -1.34790  -1.51651  -1.13344
H    -2.32646   2.06531   1.06069
H    -2.61927   2.17076  -0.69951
H    -3.49513   0.97716   0.28391
H    -2.30085  -1.30037   1.29591
H    -1.50762   0.02218   2.30601
H    -0.07880  -2.38543   0.97149
H     0.65639  -1.14861   2.13439
25

C     0.20252   2.08578   0.55630
N    -0.14457   0.88165  -0.19896
C    -1.48250   0.38110  -0.04569
C    -1.91747  -0.57855  -1.15923
C    -2.52868   1.46938   0.16213
C    -1.39059  -0.67573   1.44423
C    -0.13183  -1.37606   1.40542
C     0.82104  -0.14209  -0.18674
C     0.95477  -1.03369  -1.31317
N     1.12426  -1.79435  -2.17830
C     2.10095   0.14844   0.39435
N     3.12974   0.30630   0.91695
H     1.21850   2.39228   0.29500
H     0.14244   1.92735   1.64854
H    -0.47058   2.90815   0.27787
H    -1.81108  -0.14709  -2.17211
H    -2.96970  -0.82253  -0.99844
H    -1.34667  -1.51594  -1.13143
H    -2.32537   2.06453   1.06088
H    -2.62186   2.17342  -0.69831
H    -3.49388   0.97614   0.28363
H    -2.30173  -1.29874   1.29383
H    -1.50769   0.02271   2.30661
H    -0.07951  -2.38602   0.97192
H     0.65743  -1.14763   2.13255
25

C     0.20165   2.08698   0.55688
N    -0.14722   0.87974  -0.19411
C    -1.47940   0.39611  -0.06752
C    -1.91588  -0.57888  -1.16006
C    -2.52809   1.47224   0.16019
C    -1.39039  -0.69330   1.46754
C    -0.14046  -1.38628   1.42121
C     0.82864  -0.13224  -0.20129
C     0.95529  -1.03173  -1.31627
N     1.12395  -1.79653  -2.17887
C     2.10097   0.15055   0.39141
N     3.12893   0.30554   0.91800
H     1.21832   2.39182   0.29483
H     0.14213   1.92748   1.64853
H    -0.47083   2.90832   0.27767
H    -1.81144  -0.15018  -2.17376
H    -2.96908  -0.82209  -0.99739
H    -1.34543  -1.51537  -1.12942
H    -2.32429   2.06375   1.06107
H    -2.62444   2.17608  -0.69710
H    -3.49264   0.97513   0.28336
H    -2.30261  -1.29711   1.29176
H    -1.50776   0.02323   2.30721
H    -0.08023  -2.38661   0.97235
H     0.65847  -1.14665   2.13070
25

C     0.20078   2.08819   0.55746
N    -0.14987   0.87784  -0.18926
C    -1.47631   0.41112  -0.08935
C    -1.91430  -0.57920  -1.16090
C    -2.52749   1.47509   0.15825
C    -1.39020  -0.71087   1.49084
C    -0.14910  -1.39650   1.43700
C     0.83623  -0.12239  -0.21585
C     0.95581  -1.02977  -1.31937
N     1.12364  -1.79870  -2.17944
C     2.10100   0.15267   0.38847
N     3.12811   0.30478   0.91904
H     1.21813   2.39136   0.29465
H     0.14181   1.92760   1.64852
H    -0.47107   2.90849   0.27747
H    -1.81180  -0.15327  -2.17541
H    -2.96846  -0.82164  -0.99634
H    -1.34419  -1.51480  -1.12741
H    -2.32320   2.06296   1.06126
H    -2.62702   2.17874  -0.69590
H    -3.49139   0.97411   0.28308
H    -2.30349  -1.29548   1.28968
H    -1.50783   0.02376   2.30781
H    -0.08094  -2.38720   0.97278
H     0.65951  -1.14567   2.12886
25

C     0.19991   2.08939   0.55804
N    -0.15252   0.87593  -0.18442
C    -1.47321   0.42612  -0.11118
C    -1.91271  -0.57953  -1.16173
C    -2.52689   1.47795   0.15631
C    -1.39000  -0.72844   1.51415
C    -0.15774  -1.40672   1.45279
C     0.84383  -0.11254  -0.23041
C     0.95634  -1.02780  -1.32246
N     1.12333  -1.80087  -2.18000
C     2.10103   0.15478   0.38553
N     3.12730   0.30403   0.92009
H     1.21795   2.39090   0.29447
H     0.14149   1.92773   1.64851
H    -0.47132   2.90866   0.27728
H    -1.81216  -0.15635  -2.17706
H    -2.96784  -0.82119  -0.99529
H    -1.34295  -1.51422  -1.12539
H    -2.32211   2.06218   1.06146
H    -2.62960   2.18140  -0.69470
H    -3.49015   0.97310   0.28280
H    -2.30437  -1.29385   1.28760
H    -1.50790   0.02428   2.30840
H    -0.08165  -2.38779   0.97321
H     0.66055  -1.14470   2.12701
25

C     0.19904   2.09060   0.55862
N    -0.15517   0.87403  -0.17957
C    -1.47012   0.44113  -0.13302
C    -1.91113  -0.57986  -1.16257
C    -2.52630   1.48081   0.15436
C    -1.38980  -0.74601   1.53745
C    -0.16638  -1.41695   1.46857
C     0.85143  -0.10269  -0.24497
C     0.95686  -1.02584  -1.32556
N     1.12301  -1.80304  -2.18057
C     2.10106   0.15690   0.38260
N     3.12648   0.30327   0.92113
H     1.21776   2.39044   0.29430
H     0.14118   1.92786   1.64850
H    -0.47156   2.90883   0.27708
H    -1.81252  -0.15944  -2.17872
H    -2.96722  -0.82075  -0.99424
H    -1.34172  -1.51365  -1.12338
H    -2.32102   2.06140   1.06165
H    -2.63218   2.18406  -0.69350
H    -3.48890   0.97208   0.28252
H    -2.30525  -1.29222   1.28553
H    -1.50797   0.02481   2.30900
H    -0.08237  -2.38838   0.97364
H     0.66159  -1.14372   2.12517
25

C     0.19816   2.09181   0.55920
N    -0.15782   0.87213  -0.17473
C    -1.46702   0.45614  -0.15485
C    -1.90954  -0.58018  -1.16340
C    -2.52570   1.48366   0.15242
C    -1.38961  -0.76358   1.56076
C    -0.17501  -1.42717   1.48436
C     0.85902  -0.09284  -0.25953
C     0.95738  -1.02388  -1.32866
N     1.12270  -1.80522  -2.18114
C     2.10109   0.15901   0.37966
N     3.12567   0.30252   0.92218
H     1.21758   2.38998   0.29412
H     0.14086   1.92799   1.64848
H    -0.47181   2.90899   0.27688
H    -1.81288  -0.16253  -2.18037
H    -2.96661  -0.82030  -0.99319
H    -1.34048  -1.51308  -1.12137
H    -2.31993   2.06062   1.06184
H    -2.63477   2.18671  -0.69229
H    -3.48766   0.97107   0.28224
H    -2.30613  -1.29059   1.28345
H    -1.50804   0.02533   2.30960
H    -0.08308  -2.38897   0.97407
H     0.66262  -1.14274   2.12332
25

C     0.19729   2.09301   0.55978
N    -0.16047   0.87022  -0.16988
C    -1.46393   0.47115  -0.17668
C    -1.90795  -0.58051  -1.16424
C    -2.52511   1.48652   0.15048
C    -1.38941  -0.78115   1.58406
C    -0.18365  -1.43739   1.50015
C     0.86662  -0.08299  -0.27409
C     0.95790  -1.02192  -1.33175
N     1.12239  -1.80739  -2.18171
C     2.10112   0.16113   0.37672
N     3.12485   0.30176   0.92323
H     1.21739   2.38952   0.29394
H     0.14055   1.92812   1.64847
H    -0.47205   2.90916   0.27669
H    -1.81324  -0.16561  -2.18202
H    -2.96599  -0.81986  -0.99214
H    -1.33924  -1.51251  -1.11936
H    -2.31885   2.05984   1.06203
H    -2.63735   2.18937  -0.69109
H    -3.48641   0.97005   0.28197
H    -2.30701  -1.28897   1.28137
H    -1.50810   0.02586   2.31019
H    -0.08380  -2.38956   0.97450
H     0.66366  -1.14176   2.12148
25

C     0.19642   2.09422   0.56036
N    -0.16312   0.86832  -0.16504
C    -1.46083   0.48616  -0.19852
C    -1.90637  -0.58083  -1.16507
C    -2.52451   1.48937   0.14854
C    -1.38921  -0.79872   1.60737
C    -0.19229  -1.44761   1.51594
C     0.87422  -0.07314  -0.28865
C     0.95842  -1.01996  -1.33485
N     1.12208  -1.80956  -2.18228
C     2.10115   0.16324   0.37378
N     3.12404   0.30101   0.92427
H     1.21721   2.38906   0.29377
H     0.14023   1.92825   1.64846
H    -0.47230   2.90933   0.27649
H    -1.81360  -0.16870  -2.18367
H    -2.96537  -0.81941  -0.99109
H    -1.33800  -1.51194  -1.11735
H    -2.31776   2.05906   1.06223
H    -2.63993   2.19203  -0.68989
H    -3.48516   0.96904   0.28169
H    -2.30789  -1.28734   1.27930
H    -1.50817   0.02638   2.31079
H    -0.08451  -2.39015   0.97493
H     0.66470  -1.14078   2.11963
25

C     0.19555   2.09542   0.56094
N    -0.16577   0.86641  -0.16019
C    -1.45773   0.50117  -0.22035
C    -1.90478  -0.58116  -1.16591
C    -2.52392   1.49223   0.14659
C    -1.38901  -0.81629   1.63067
C    -0.20092  -1.45783   1.53173
C     0.88181  -0.06329  -0.30321
C     0.95894  -1.01799  -1.33795
N     1.12177  -1.81174  -2.18285
C     2.10118   0.16536   0.37085
N     3.12322   0.30025   0.92532
H     1.21702   2.38860   0.29359
H     0.13991   1.92838   1.64845
H    -0.47254   2.90950   0.27630
H    -1.81396  -0.17179  -2.18532
H    -2.96475  -0.81897  -0.99004
H    -1.33677  -1.51137  -1.11533
H    -2.31667   2.05827   1.06242
H    -2.64251   2.19469  -0.68869
H    -3.48392   0.96802   0.28141
H    -2.30877  -1.28571   1.27722
H    -1.50824   0.02691   2.31139
H    -0.08522  -2.39075   0.97536
H     0.66574  -1.13980   2.11779
25

C     0.19468   2.09663   0.56152
N    -0.16842   0.86451  -0.15534
C    -1.45464   0.51618  -0.24218
C    -1.90320  -0.58149  -1.16674
C    -2.52332   1.49509   0.14465
C    -1.38882  -0.83386   1.65398
C    -0.20956  -1.46805   1.54751
C     0.88941  -0.05344  -0.31777
C     0.95947  -1.01603  -1.34104
N     1.12146  -1.81391  -2.18341
C     2.10121   0.16747   0.36791
N     3.12241   0.29949   0.92636
H     1.21684   2.38814   0.29342
H     0.13960   1.92850   1.64844
H    -0.47279   2.90967   0.27610
H    -1.81432  -0.17487  -2.18697
H    -2.96413  -0.81852  -0.98899
H    -1.33553  -1.51079  -1.11332
H    -2.31558   2.05749   1.06261
H    -2.64509   2.19735  -0.68748
H    -3.48267   0.96700   0.28113
H    -2.30965  -1.28408   1.27514
H    -1.50831   0.02743   2.31199
H    -0.08594  -2.39134   0.97579
H     0.66678  -1.13882   2.11594
25

C     0.19381   2.09783   0.56209
N    -0.17107   0.86261  -0.15050
C    -1.45154   0.53119  -0.26402
C    -1.90161  -0.58181  -1.16758
C    -2.52273   1.49794   0.14271
C    -1.38862  -0.85143   1.67728
C    -0.21820  -1.47827   1.56330
C     0.89701  -0.04359  -0.33233
C     0.95999  -1.01407  -1.34414
N     1.12114  -1.81608  -2.18398
C     2.10124   0.16959   0.36497
N     3.12159   0.29874   0.92741
H     1.21666   2.38768   0.29324
H     0.13928   1.92863   1.64843
H    -0.47303   2.90984   0.27590
H    -1.81468  -0.17796  -2.18862
H    -2.96351  -0.81807  -0.98794
H    -1.33429  -1.51022  -1.11131
H    -2.31449   2.05671   1.06280
H    -2.64767   2.20000  -0.68628
H    -3.48143   0.96599   0.28086
H    -2.31053  -1.28245   1.27307
H    -1.50838   0.02796   2.31258
H    -0.08665  -2.39193   0.97622
H     0.66781  -1.13784   2.11410
25

C     0.19293   2.09904   0.56267
N    -0.17371   0.86070  -0.14565
C    -1.44845   0.54619  -0.28585
C    -1.90003  -0.58214  -1.16841
C    -2.52213   1.50080   0.14076
C    -1.38842  -0.86900   1.70059
C    -0.22684  -1.48850   1.57909
C     0.90461  -0.03375  -0.34689
C     0.96051  -1.01211  -1.34724
N     1.12083  -1.81826  -2.18455
C     2.10127   0.17170   0.36203
N     3.12078   0.29798   0.92846
H     1.21647   2.38722   0.29306
H     0.13897   1.92876   1.64842
H    -0.47328   2.91001   0.27571
H    -1.81504  -0.18105  -2.19027
H    -2.96289  -0.81763  -0.98690
H    -1.33306  -1.50965  -1.10930
H    -2.31340   2.05593   1.06299
H    -2.65026   2.20266  -0.68508
H    -3.48018   0.96497   0.28058
H    -2.31141  -1.28082   1.27099
H    -1.50845   0.02848   2.31318
H    -0.08736  -2.39252   0.97665
H     0.66885  -1.13686   2.11225
25

C     0.19206   2.10024   0.56325
N    -0.17636   0.85880  -0.14081
C    -1.44535   0.56120  -0.30768
C    -1.89844  -0.58246  -1.16925
C    -2.52154   1.50365   0.13882
C    -1.38822  -0.88657   1.72389
C    -0.23547  -1.49872   1.59488
C     0.91220  -0.02390  -0.36144
C     0.96103  -1.01014  -1.35033
N     1.12052  -1.82043  -2.18512
C     2.10129   0.17382   0.35910
N     3.11996   0.29723   0.92950
H     1.21629   2.38676   0.29289
H     0.13865   1.92889   1.64841
H    -0.47352   2.91018   0.27551
H    -1.81540  -0.18413  -2.19193
H    -2.96228  -0.81718  -0.98585
H    -1.33182  -1.50908  -1.10729
H    -2.31232   2.05515   1.06319
H    -2.65284   2.20532  -0.68388
H    -3.47894   0.96396   0.28030
H    -2.31229  -1.27919   1.26891
H    -1.50852   0.02901   2.31378
H    -0.08808  -2.39311   0.97708
H     0.66989  -1.13588   2.11041
25

C     0.19119   2.10145   0.56383
N    -0.17901   0.85689  -0.13596
C    -1.44226   0.57621  -0.32952
C    -1.89685  -0.58279  -1.17008
C    -2.52094   1.50651   0.13688
C    -1.38803  -0.90414   1.74720
C    -0.24411  -1.50894   1.61067
C     0.91980  -0.01405  -0.37600
C     0.96155  -1.00818  -1.35343
N     1.12021  -1.82260  -2.18569
C     2.10132   0.17593   0.35616
N     3.11915   0.29647   0.93055
H     1.21610   2.38631   0.29271
H     0.13833   1.92902   1.64840
H    -0.47377   2.91035   0.27531
H    -1.81576  -0.18722  -2.19358
H    -2.96166  -0.81674  -0.98480
H    -1.33058  -1.50851  -1.10527
H    -2.31123   2.05437   1.06338
H    -2.65542   2.20798  -0.68267
H    -3.47769   0.96294   0.28002
H    -2.31317  -1.27756   1.26684
H    -1.50858   0.02953   2.31437
H    -0.08879  -2.39370   0.97751
H     0.67093  -1.13490   2.10856
25

C     0.19032   2.10265   0.56441
N    -0.18166   0.85499  -0.13111
C    -1.43916   0.59122  -0.35135
C    -1.89527  -0.58312  -1.17091
C    -2.52035   1.50937   0.13494
C    -1.38783  -0.92171   1.77050
C    -0.25275  -1.51916   1.62645
C     0.92740  -0.00420  -0.39056
C     0.96207  -1.00622  -1.35653
N     1.11990  -1.82478  -2.18625
C     2.10135   0.17805   0.35322
N     3.11833   0.29572   0.93159
H     1.21592   2.38585   0.29253
H     0.13802   1.92915   1.64839
H    -0.47401   2.91052   0.27512
H    -1.81612  -0.19031  -2.19523
H    -2.96104  -0.81629  -0.98375
H    -1.32934  -1.50794  -1.10326
H    -2.31014   2.05358   1.06357
H    -2.65800   2.21064  -0.68147
H    -3.47645   0.96193   0.27975
H    -2.31405  -1.27593   1.26476
H    -1.50865   0.03006   2.31497
H    -0.08950  -2.39429   0.97794
H     0.67197  -1.13392   2.10672
