16

C -2.061139081 -1.413257723 -2.316617297
C -1.814051626 -1.096038903 0.504838067
C 0.655921311 -0.661454939 1.843087230
C 3.161686795 -0.492915142 0.495017500
C -1.305219831 1.365384573 1.766583690
O -0.454703047 3.864890641 -0.760384313
H -0.805210658 -0.151294970 -3.342726262
H -3.987855498 -0.979352151 -2.910189306
H -1.641937412 -3.358695714 -2.862439082
H -3.193555118 -2.188429029 1.568947118
H 0.802337083 -1.485103655 3.721049999
H 4.469961142 0.721097549 1.534751579
H 4.024353895 -2.360566280 0.348089215
H 2.962354950 0.258193753 -1.410172650
H -1.508371399 3.739053363 1.107044706
H 1.223383919 4.372188678 -0.266043713

