14

O 2.262271022 -0.952247734 -1.266462323
C 1.780790632 0.884202721 0.491778056
C 3.680222371 1.703317228 1.923739154
C 0.275374179 -2.242528071 -2.263214393
C -2.109885038 -1.896674100 -1.604777932
C -2.773212923 0.104632340 0.270114202
N -0.653637313 1.848971497 0.465782832
H 3.369346304 3.147174738 3.332682707
H 5.564184548 0.978749026 1.636397377
H 0.907993693 -3.609800348 -3.643336731
H -3.573572616 -3.040954536 -2.450853633
H -3.266263426 -0.743564938 2.103223206
H -4.423022197 1.164583730 -0.375861688
H -0.884554570 3.208572695 1.774970918

