17

O 4.108204842 -1.735101609 3.788932797
C 4.589609114 -1.697528430 1.574127802
C 3.044936378 -0.343212626 -0.396672033
C 0.851953714 1.122978593 0.670777280
C -2.108094693 1.567793459 -2.175443984
C -3.182550902 -1.041837798 -2.076853608
C -4.427947352 1.069218569 -0.644688590
H 6.263978874 -2.716732127 0.828800506
H 4.328629886 0.863370702 -1.482323490
H 2.391574928 -1.781315145 -1.739772520
H 1.404874028 2.831304427 1.683362438
H -0.387833670 -0.000269248 1.848054961
H -0.084868961 2.234926723 -1.253292463
H -3.988625977 -1.712457455 -3.837281724
H -2.310310468 -2.526754540 -0.968287427
H -6.135961003 1.936380307 -1.372447972
H -4.367006028 0.973890805 1.398091763

