14

C -3.240040982 -2.454896929 0.048972933
C -1.459059544 -0.336165157 -0.644801898
C 2.248857576 4.172343016 -0.758420869
N 2.998606832 2.440763327 0.848495288
C 2.959402309 -0.280200275 0.672919776
O 4.624464791 -1.474007126 1.606749521
O 1.081385721 -1.324357806 -0.606923698
H -2.877325494 -3.122957387 1.963905339
H -3.026076137 -4.038501953 -1.250120992
H -5.186149315 -1.779519508 -0.054161214
H -1.827821323 0.354809913 -2.551535709
H -1.627163174 1.242441391 0.669663116
H 1.299911761 3.175036501 -2.325178777
H 4.057177814 2.988025726 2.348570714

