12

C 2.895085159 0.394874261 1.621103597
C 0.894933475 -1.287571263 0.782562214
O -1.478625220 -1.045534499 1.978537640
C -3.043748988 0.253825330 0.301513211
O -1.463566692 1.913838217 -1.092505966
C 0.858425818 0.724700407 -1.309657041
H 4.638629781 -0.269394405 0.688223893
H 2.344389128 2.201323179 -0.655490964
H 1.264671033 -3.217948005 0.176725505
H -4.001060734 -1.050611040 -1.004828570
H -4.412074239 1.374718743 1.353193893
H 1.364681557 0.044502143 -3.183625060

