14

O -4.352206732 2.709715537 -0.802950980
C -2.337689614 1.195257764 -0.903856856
C 0.098899081 2.015418064 0.023881754
C 2.392877743 0.477075665 0.212200427
C 2.402423449 -2.132627609 0.498398598
C 0.465210302 -3.831079983 0.225377468
H -3.880308085 4.379518868 -0.250572998
H -2.783261806 -0.630088320 -1.674745438
H -0.374460286 2.224908000 2.068243109
H 0.498520013 3.949136144 -0.611944720
H 4.119026717 1.527309913 0.512333552
H 4.200637658 -2.925596904 1.103606123
H -1.357998465 -3.418950255 -0.569945198
H 0.757488289 -5.777720652 0.782274787

