12

C -2.590516772 0.596924534 -0.818061835
N -1.097773615 -1.475598843 0.201250938
C 1.488969751 -0.937755198 0.713664123
C 3.911508389 0.662982122 -3.270224935
N 2.914857307 -0.037044207 -1.434560908
C 1.714131885 0.941172616 2.770907344
N 1.882332193 2.358981763 4.396673764
H -2.631404530 2.145462270 0.542676185
H -4.522112689 -0.059207160 -1.081808321
H -1.874091494 1.320231853 -2.622019772
H -1.234743214 -3.051154654 -0.865288339
H 2.408216234 -2.668269175 1.360445547

