12

C -2.683853557 0.551847593 -0.673916323
N -0.970530608 -1.491181014 -0.034971574
C 1.348674575 -1.058717965 0.799192692
C 4.050950543 -0.499576067 -2.147193882
N 2.884850157 1.383734909 -2.310571364
C 1.745336365 1.006605404 2.536635483
N 1.983664958 2.525304421 4.062040987
H -2.924744902 1.795572637 0.948088390
H -4.506897237 -0.241614486 -1.190789223
H -1.890571777 1.638238594 -2.244710761
H -1.189386404 -3.120757444 -0.993801470
H 2.521879424 -2.692732511 1.143652707

