12

O 1.441348653 4.969918915 0.858771373
C 0.965216414 2.698207407 0.591307758
N 3.074161144 1.484760046 0.156494778
C 0.891950258 -2.272502415 -0.969131454
C -1.582347242 -1.174886857 -0.151867311
O -1.746537967 -0.589274186 2.443302836
C -1.565656519 1.446223844 0.706918311
H 2.542673347 -1.174161315 -0.050484657
H 1.199570252 -4.179198810 -0.243584431
H 1.186343624 -2.195303154 -3.001315811
H -3.285667455 -1.967700816 -0.981885745
H -3.189290629 2.691685716 0.587860916

