8

N 4.702506247 2.768399526 -1.383647472
C 2.803658830 1.380309535 -0.301883918
O 1.193465453 2.903832758 0.949051602
H -0.122794309 1.815417407 1.579024139
N 2.390262173 -0.976831389 -0.397454701
H 3.716715477 -1.914613950 -1.406979429
H 4.956334543 4.526387287 -0.713917233
H 6.271919239 1.840506110 -1.899485426

