15

N 4.290418641 2.533700908 -1.023757446
C 2.104060241 1.398812637 -0.229963682
O 0.586481983 2.935039752 0.916186827
N 1.576099486 -0.963926544 -0.653763433
C -2.281905730 -1.903533522 -0.472130819
C -3.017685205 -1.375941169 2.055954711
O -3.001024944 0.872971172 2.955337300
H 4.688348570 4.206247934 -0.219601482
H 5.767475917 1.439611050 -1.482518132
H 2.930516485 -1.882535301 -1.638720021
H -2.094935037 -3.851583171 -1.062098402
H -2.580646978 -0.459102669 -1.883478973
H -3.034467522 -2.992866940 3.355470083
H -4.866763282 -2.015243302 0.557548745
H -1.068223269 2.065140840 1.807531977

