15

O 4.748191075 1.405038057 1.344960602
C 3.109420240 0.187283613 -0.368213173
C 0.801290685 -0.824050698 0.964551231
O -0.670786539 1.163578206 2.160587808
C -2.902179418 0.227922022 0.986220285
C -2.756753654 0.486130042 -1.802447177
C -1.489785300 -1.720942704 -0.516756494
H 3.793234343 2.705430998 2.178293861
H 2.550837398 1.464002217 -1.901061685
H 4.160258954 -1.383902679 -1.198497416
H 1.361907250 -2.187279906 2.413990727
H -4.614149267 0.136551421 2.098906353
H -1.674271041 2.019241679 -2.619727988
H -4.461070566 -0.013964906 -2.819509059
H -1.956144140 -3.665037364 -0.921297875

