11

C 2.300179325 -0.833918980 -0.219752169
N 0.436138547 0.694017018 1.236412258
C -1.887624296 1.575762793 -0.104643849
C -3.376476978 -0.510831068 -0.789126972
N -4.607513022 -2.278678399 -1.202188410
H 1.318806150 -2.488974474 -0.942755432
H 3.876393083 -1.392461570 0.986738184
H 2.966540372 0.307813558 -1.792952021
H -0.160082990 -0.325172091 2.754499419
H 1.295407901 2.247792564 1.967019514
H -1.383308625 2.877402142 -1.603619756

