11

C -2.852446040 0.293882497 1.263399682
C 0.979907258 -0.091153680 -2.397053452
C 1.400605420 -0.137345597 0.082700481
O -0.290296817 0.032072262 1.972630469
C 3.940438755 -0.397666955 1.049496555
N 5.970624008 -0.605313992 1.780034288
H -3.919849036 0.389297452 3.015045389
H -3.480058290 -1.333746627 0.154095525
H -3.141718078 2.026847090 0.174074390
H 2.560471468 -0.252563881 -3.675892914
H -0.890871546 0.099656918 -3.189539072

