11

C -3.124263736 0.656388584 0.627047373
C 0.532782429 -0.303694408 -1.887453389
C 1.546313830 -0.361368339 0.514630835
O 0.188666420 -0.502423450 2.456667017
C 4.278926819 -0.299822624 0.878549228
N 6.430281028 -0.224965565 1.143617842
H -3.911625590 -0.607766044 2.019929710
H -3.966773165 0.541679638 -1.226826112
H -2.633450971 2.529667685 1.264583406
H 1.615554529 0.319310689 -3.508364120
H -0.892962169 -1.730580666 -2.236771342

