10

N 2.468328120 -4.553870009 -0.223240112
C 1.183372634 -2.558047478 -0.496868676
C -1.495106032 -2.419057593 0.295527296
H -2.191077046 -4.171282974 1.119072813
C -2.611137728 0.071260760 1.114010048
H -2.705787231 1.420612348 2.630496309
C -3.295253488 -0.692057618 -1.080183534
H -4.389349394 -0.463169246 -2.777121708
H 1.943461092 -0.811990163 -1.329490170
H 4.262118934 -4.314796599 -0.870485162

