14

O 2.869356368 -2.784171558 -0.351951286
C 1.761209611 -1.138514731 1.102123198
C 0.889123946 1.525991810 0.885420348
C -0.721417008 1.652635586 -1.508472348
C -2.465764517 -0.460794560 -0.453554736
C -0.863821591 -0.591730149 1.946293470
H 3.642821857 -2.140705678 2.191384466
H 2.999014578 -1.004496885 3.417651011
H 1.780550391 3.106612277 1.828123925
H 0.280052385 1.231574332 -3.259029158
H -1.699619487 3.452503022 -1.695738009
H -4.375765948 0.208549419 -0.086007218
H -2.550156643 -2.209058017 -1.540427976
H -1.551130270 -0.917403887 3.844545339

