14

C 3.082770453 -0.864029460 0.643407394
O 2.829094903 1.741335777 1.272277445
C 0.700773054 0.468472612 0.294196947
C -1.548907404 0.085745718 2.010336968
C -2.860570672 -0.465746115 -1.948745087
C -0.450093702 1.092615570 -2.227421959
H 3.323768189 -2.129254523 2.243059027
H 4.270073471 -1.261929645 -0.983959852
H -2.137055067 1.855045342 2.892413219
H -1.399215999 -1.424027480 3.398271454
H -3.353981867 -0.274710318 0.730744998
H -2.245372373 -2.463337523 -1.905084156
H -0.845577532 3.110430393 -2.406753662
H 0.692626614 0.486927507 -3.835456191

