13

O 1.673214231 -4.371384467 0.359677847
C 1.765256687 -2.285946381 -0.343853696
C -2.298303923 -1.009710450 -0.010055724
C -2.517198554 1.559423333 0.321481815
C 1.036693472 2.705896986 0.920560806
O 1.957224950 3.369338179 2.766875084
C 2.849836272 -0.138952204 -1.211347648
H -2.514379649 -2.269824201 1.583874877
H -2.566858156 -1.831928322 -1.868132073
H -3.118127304 2.307169422 2.133176329
H -2.930222935 2.776326134 -1.271260924
H 4.786353641 0.217488202 -0.662419758
H 2.198530031 0.580264482 -3.007999829

