17

C 5.671512412 -0.630822328 -0.029615429
C 2.875518614 -0.307739310 -0.321433494
C 1.422264592 0.515303597 1.547385645
O -1.131279782 0.839877532 1.569483838
C -2.551256029 -0.116846680 -0.470565729
C -5.282661200 -0.133787035 0.368777748
O -2.180640372 1.283653559 -2.681179179
H 6.706450688 0.541109508 -1.379405433
H 6.238394213 -2.588099982 -0.368968289
H 6.294521516 -0.114317810 1.867823481
H 2.061412259 -0.728597079 -2.152718024
H -2.788599017 2.971523750 -2.396148594
H 2.203595650 1.042954191 3.368266005
H -1.884570120 -2.023211862 -0.922439478
H -5.875766578 1.778673515 0.872823660
H -6.475835938 -0.827306602 -1.158995073
H -5.523266950 -1.339642667 2.020319050

