13

O -4.082313062 -0.006602325 0.135259510
C -2.126956220 -1.845062637 0.222542104
C -0.612970312 -0.089694584 -1.296515828
C 0.355671760 2.160908683 0.058571154
O -0.785339091 2.667727164 2.189010177
C 2.838504114 0.621186331 0.076490973
C 4.712764984 -0.667207039 0.088738402
H -3.310340041 1.374917372 1.292642910
H -1.406607077 -2.188575880 2.121164455
H -2.706116931 -3.575793706 -0.719461746
H -0.460064313 -0.282076357 -3.333544725
H 0.735699728 3.738438578 -1.255430575
H 6.409940961 -1.750301659 0.138850594

