13

C -2.991582985 -1.590772000 0.422070802
C -0.830349231 -0.126042446 -0.687600926
C 0.054401133 2.321654494 0.404133768
O 5.484028072 1.285168363 -0.339883268
C 3.860881852 -0.300560033 -0.263049480
N 1.486510821 0.038833456 0.757417934
H -2.773523103 -3.609301668 0.058655719
H -4.778616686 -0.975635174 -0.404721170
H -3.078104435 -1.309608796 2.461928827
H -0.587722834 -0.306242723 -2.721458427
H -0.868742248 3.057727972 2.077966166
H 0.854020450 3.727764498 -0.853941403
H 4.163729096 -2.257925541 -0.920670505

