13

C -3.569941659 0.354784382 -0.716658583
C -1.085986316 -0.995407416 -0.660625293
O -0.840739210 -3.261518947 -0.800402023
C 1.241328928 0.717960869 -0.366366854
O 1.094638881 2.561493016 1.410151788
C 3.418040219 -0.611630817 0.792970486
O 3.357099178 -1.135143535 3.138013894
H -3.681863013 1.623888789 0.904587178
H -3.657394782 1.544318903 -2.403524894
H -5.121862609 -0.992488790 -0.725416613
H 1.779082339 1.349321220 -2.291960755
H 1.859984443 -0.159448174 3.733533303
H 5.224263976 -1.005147272 -0.114939795

