16

C 4.167223577 -0.950507693 -2.191286881
N -0.381884246 -0.402665432 -2.516744282
C 1.849914716 0.369622625 -1.122734724
C -2.457275867 -0.853160738 -1.444953362
C -3.144897145 -0.723702858 1.338590297
O -4.320147226 -2.462827826 2.222687156
C -2.481361731 1.578377381 2.884889482
H 5.875867943 -0.303168479 -1.234914517
H 4.347890900 -0.563644265 -4.206805195
H 4.018331678 -2.992153209 -1.943274292
H 1.718572590 0.005034306 0.911421770
H 2.048796240 2.413753094 -1.378500576
H -4.017795827 -1.531841854 -2.612433154
H -0.937400609 1.108285444 4.171204739
H -1.909896268 3.176614687 1.720864185
H -4.113725979 2.083377264 4.034602428

