15

C -3.833844387 0.238352498 2.128367599
C -2.716666157 1.587944440 -0.167783869
C -1.269496430 -0.178475146 -1.844796525
C 1.174562126 -0.112795334 -2.413577463
C 3.105006274 1.763303485 -1.543240909
H 3.912822694 2.773975125 -3.154089794
H 2.337822708 3.159369103 -0.239830698
H 4.671416302 0.805072802 -0.597248301
H 1.887135178 -1.580679577 -3.662041033
H -2.382920530 -1.706335612 -2.654588729
H -1.525023250 3.151252880 0.456095567
H -4.254088505 2.435064234 -1.264318127
H -5.064040315 -1.315952720 1.551038221
H -4.952588653 1.529494210 3.284500719
H -2.340702915 -0.554305805 3.311038654

