19

C -4.391051924 0.107097261 1.830337305
C -2.231598538 1.526376577 0.510937460
C -0.966024291 -0.214756924 -1.293857815
C 2.855293555 1.303790272 -1.784935406
C 1.462357532 -1.192878977 -1.033862568
C 2.839798897 -1.899785855 1.696026400
O 5.148113361 -1.008019807 1.647758184
H -5.785309017 -0.578119378 0.472986563
H -5.354017258 1.362011657 3.149941883
H -3.672914479 -1.508944005 2.889771249
H -0.894753421 2.234365134 1.908138709
H -3.013889255 3.146152094 -0.507321771
H -2.157228309 -0.865177526 -2.847221363
H 3.094818855 1.532303798 -3.811796915
H 2.147364638 3.029422558 -0.921214293
H 1.903562643 -2.645279750 -2.421470981
H 1.591514133 -1.139509370 3.200792050
H 2.683839195 -3.982285379 1.696045108
H 4.662486175 0.704297676 -0.568871512

