14

C 3.719102012 -0.314272793 0.306450631
C 0.986194207 0.592434639 0.090228073
H 0.975260875 2.637955190 -0.197223988
C -0.453009474 -0.772508588 -1.964368417
H -0.078229937 -0.626718731 -3.963129622
C -2.103589699 -2.318842109 -0.891556704
H -3.370628616 -3.679857673 -1.736891633
O -2.198219757 -2.206494187 1.671181982
C -0.655487411 -0.088952338 2.395843800
H -1.923542830 1.460199956 2.908335541
H 0.442991790 -0.638775089 4.050885442
H 4.758032221 0.044791555 -1.439752779
H 4.705751398 0.649127991 1.843511530
H 3.777100561 -2.345831235 0.669263798

