13

C 2.828638572 -0.462432650 -0.735620510
C 0.202176564 0.081399443 0.176234838
O -0.639039027 2.670101642 -0.401851243
C -2.666751876 1.589666774 -1.601177021
C -2.087617847 -0.836345653 -1.275695412
O 1.005922646 -1.733433415 4.256739167
C -0.228948276 -0.333077476 2.977836871
H 4.186330031 0.744251872 0.238157478
H 2.954950795 -0.142338764 -2.765121721
H 3.302525967 -2.423524886 -0.319698669
H -4.129984086 2.742547657 -2.441949924
H -2.886126856 -2.650995944 -1.720241388
H -1.860968197 0.739653186 3.734838007

