10

O -0.292474519 2.966576012 -2.102422453
C -0.072656549 1.080769501 -0.735939043
C -2.041044905 -0.530782494 0.584401640
C 0.329946106 -1.942644125 1.429622335
O 1.910793415 3.986190612 -3.025616404
C 1.984887517 -0.441381951 0.215019993
H -3.314856108 -1.565799004 -0.661869923
H -3.111905437 0.418030209 2.067258581
H 0.554883173 -3.598018907 2.607457562
H 4.007476411 -0.352398528 -0.005513408

