18

C -4.555600336 0.956761005 -0.478766082
C -2.332611542 1.820440507 1.131921477
C -0.723473238 -0.356711733 2.133251937
N 0.363237486 -1.837586294 0.109540450
C 2.606918895 -1.523355850 -0.616792340
O 3.484238648 -2.963722998 -2.538924754
C 4.615515029 0.254322422 0.286513037
H -5.658128635 2.565851008 -1.149221485
H -3.908528291 -0.111237897 -2.117854769
H -5.816760825 -0.266296350 0.606890893
H -1.121860631 3.089510954 0.033086289
H -3.017934157 2.912902310 2.748594497
H 0.703388983 0.389074635 3.437707978
H -1.924645769 -1.621710482 3.243047196
H 2.100958218 -4.054762933 -3.011742961
H 6.240796149 -0.823507364 0.953606315
H 3.953584597 1.485443258 1.789519750
H 5.249336843 1.409967880 -1.297671547

