16

C 3.053055171 -0.132927096 -3.569703553
N 1.714323050 0.638776487 -1.298109321
C 1.475419375 -1.250943099 0.743167264
C -0.712685226 -0.495380932 -1.067046612
C -2.098293742 -0.247858368 1.257678895
O -2.594943266 -2.450866011 2.174526239
C -2.857387107 2.136446178 2.522043660
H 5.070135910 0.137646026 -3.265126019
H 2.458666026 1.060971294 -5.142123194
H 2.716363234 -2.121678989 -4.056937101
H -0.417502389 -3.185288208 1.449586914
H 1.604132893 -0.251506182 2.551847381
H -1.245371430 -2.013047384 -2.346833696
H -2.800827208 1.939575758 4.569128923
H -1.649252636 3.681533180 1.891211034
H -4.797271892 2.572906055 1.960868965

