12

N 0.818190827 -1.866036801 -0.020434270
C 2.669197919 -1.128148128 -1.187889817
C 4.755311393 -0.457255462 -2.312979518
N -1.618735543 -1.226742038 -0.860407366
C -3.222585714 -0.177413857 1.089912392
C -2.230804097 1.452926891 -0.967505893
H 5.756852841 1.223115389 -1.722158327
H 5.503184340 -1.576194123 -3.851151803
H -2.379794677 0.054511796 2.942006568
H -5.162616612 -0.828473678 1.067889279
H -3.421669211 2.012862984 -2.533906000
H -0.733334717 2.766374023 -0.485309278

