12

N 5.563501525 2.415886254 -0.406689773
C 3.973161517 0.985942590 -0.749680980
C 1.932383460 -0.825004462 -1.238615376
N -0.140360258 -0.446661978 0.507040731
C -2.600708197 -1.231242307 -0.411959785
C -1.955194023 1.482810321 -0.199374988
H 1.374983172 -0.617651409 -3.232768579
H 2.684117760 -2.731730808 -0.995663285
H -3.813024462 -2.124435230 0.973095778
H -2.707719400 -2.027847398 -2.301517138
H -1.626350743 2.513249877 -1.944298788
H -2.684790389 2.606684512 1.345826058

