16

C -1.817069179 1.554137486 0.861820030
C -2.757296081 -0.428245029 -1.013914997
C -1.157411104 -2.640640434 -1.614166941
C 1.338755762 -2.567278753 -0.436193576
C 2.600514481 -0.132369514 0.554600111
C 0.925181621 2.200209846 0.270599427
H -1.962530866 0.817202463 2.792060560
H -3.008761672 3.238582586 0.785101345
H -2.902062879 0.403857452 -2.927016636
H -4.694808126 -1.049907344 -0.645119013
H 2.678713805 -3.846203196 -1.343668445
H 0.610658818 -3.731626852 1.172577101
H 4.379158120 0.148965485 -0.451875393
H 3.104201289 -0.382868283 2.543074498
H 1.031997956 2.901738280 -1.674956880
H 1.613416059 3.723430619 1.480251613

