16

C -2.831977472 0.604997463 1.449782236
C -3.197269053 -0.107285421 -1.282518211
C -0.612006098 -0.000617487 -0.180489632
C 1.253130929 -2.153258184 0.278376708
C 3.380029210 -0.149217140 0.393640100
C 1.553030881 1.808485060 -0.782866536
H -3.379564016 -0.756851130 2.876789776
H -3.135556078 2.560154485 1.976167300
H -3.746280885 1.366342210 -2.593085061
H -3.989448518 -1.949472915 -1.694954963
H 1.432171254 -3.393027540 -1.362010826
H 0.957934714 -3.310733822 1.958751811
H 5.107170820 -0.559701748 -0.649263390
H 3.878201437 0.332534199 2.333810724
H 1.844487120 2.033511341 -2.813865732
H 1.485945736 3.674140628 0.091735715

