14

C -3.737572006 -2.033526988 0.808110953
C -0.913028679 -1.852197071 0.351888698
C -0.032602330 0.772598766 -0.239624416
O -1.389618912 2.597260486 -0.363870375
C 2.839159055 1.077490788 -0.709374369
O 4.265163963 -0.709839298 -0.596580301
N 3.495912016 3.473117440 -1.233260780
H -4.311691363 -0.844038388 2.389804746
H -4.798742836 -1.412015965 -0.845291068
H -4.273638799 -3.977531508 1.230396995
H 0.188720315 -2.510115218 1.973956434
H -0.290727694 -3.065983808 -1.203200056
H 2.148160553 4.810708317 -1.275706693
H 5.312033251 3.899303253 -1.573442682

