14

C -3.082861556 -2.527521145 1.069687372
C -1.096243523 -1.313190847 -0.371785039
C -0.739427874 1.376919933 -0.056583408
O -2.132707903 2.704545832 1.363739850
C 2.320858806 1.543736811 0.401661779
O 3.144559508 1.598803071 2.500290796
N 3.756301271 1.545441835 -1.732928235
H -2.648423328 -2.135852975 3.070041787
H -4.824761247 -1.429298455 0.804753212
H -3.350502844 -4.531511034 0.721038080
H 0.131733224 -2.338984492 -1.658860041
H -0.775954220 1.825209949 -2.185013878
H 3.002346317 2.090936925 -3.385123666
H 5.624430925 1.819931679 -1.492786941

