15

O 4.445639101 0.274186070 1.914862430
C 3.127913874 -1.234833580 0.151453688
C 0.340037905 -0.627087851 0.385294294
H -0.241275829 -1.022213615 2.325466658
C -0.334873113 2.115815944 -0.297264823
H -0.595864568 3.360491898 1.322293923
H 1.119694892 3.024099181 -1.463990198
C -2.683834547 2.056710659 -1.892475619
O -3.113309693 -0.284292968 -2.457845053
C -1.285519059 -2.115859370 -1.457116565
H -0.236911449 -2.844287016 -3.079682621
H -2.372064432 -3.645689403 -0.616208187
H 3.751027234 -0.832636744 -1.790133230
H 3.456791661 -3.251345494 0.516724727
H 6.218173519 -0.069299564 1.785629408

