17

O 4.377921748 0.290827414 1.937685049
C 3.015610380 -1.115541803 0.121170241
C 0.233964554 -0.574631378 0.494866038
C -0.546930450 2.177289850 0.040241038
C -3.208148792 2.005046964 -0.955991414
O -3.483284903 -0.259335317 -2.003564039
C -1.447817998 -1.978336101 -1.385100860
H 6.147984839 -0.022309559 1.725855557
H 3.565321883 -0.572334813 -1.807841740
H 3.383417092 -3.147228368 0.334669930
H -0.283511812 -1.093546411 2.426970065
H -0.354527701 3.394736551 1.682308406
H 0.583516058 2.995521722 -1.491258266
H -4.938060778 2.548705882 0.638705774
H -4.579747238 1.612373440 2.053039714
H -0.466905122 -2.433550904 -3.147005985
H -2.290894836 -3.699431456 -0.627102383

