9

O 3.425360111 -0.040012532 0.936366400
C 1.222119597 0.364996784 -0.401484069
C -0.263657140 2.643115768 0.540661699
O -2.564998855 1.763380869 0.727823765
C -2.601573956 -0.885882934 0.176817837
N -0.519624455 -1.805520363 -0.407504831
H 4.285535664 -1.462000978 0.208873677
H 1.568729856 0.821041668 -2.413600536
H -4.434548279 -1.774482141 0.337997114

