9

O 3.710341828 -0.015454256 0.621111611
C 1.243150926 0.286486203 0.059517737
C -0.150284495 2.623206256 0.340671719
O -2.582310806 1.712915941 0.232690311
C -2.549306739 -0.854906996 0.152948102
N -0.377480957 -1.860238763 0.058166942
H 4.194333910 -1.700092032 0.141242080
H 0.982159736 1.329526150 -1.961023110
H -4.361154227 -1.798446136 0.141288643

