16

N 3.428541408 1.908419730 1.602728070
C 2.014304770 0.461094025 0.574229830
C 1.791556723 -2.232232749 -0.217798381
C -1.078378922 -2.519097313 -0.316105959
C -1.784959784 -0.133913061 1.113083061
C -1.100330434 2.594573125 -1.437997356
O 0.643614281 1.888560220 -2.909001235
H 3.084645004 3.723208784 2.058153389
H 2.824582293 -2.587428014 -1.958258724
H 2.646177370 -3.326381416 1.312481047
H -1.757137006 -4.279466846 0.516300654
H -1.733539391 -2.425244103 -2.265130386
H -3.761692735 0.449466634 1.057269679
H -1.275463202 -0.264379148 3.113676980
H -0.782549308 4.121194252 -0.042083747
H -3.053746735 2.625955240 -2.165872654

