16

C 4.320233436 1.356068185 -0.098293500
C 1.968261952 -0.094080525 -0.717379986
C 0.351056595 -1.371172218 1.244674650
C -1.839769892 -0.868154184 -0.500587676
C -4.489472432 -0.433025261 0.398986966
O -0.389148504 1.619231748 -1.070146197
H 4.852335205 2.625517485 -1.634561924
H 4.094256244 2.425549010 1.647631629
H 5.855192903 0.002535011 0.176041330
H 2.110597900 -1.014536112 -2.578227391
H 0.772741705 -3.235335715 2.000336273
H -0.282363482 1.679436608 1.019937705
H -1.815529279 -1.813538301 -2.354350630
H -5.348424803 -2.270050968 0.787697715
H -4.509997522 0.665099314 2.141578410
H -5.628037902 0.511577038 -1.038794885

