14

C -3.372633559 1.246454659 -0.381214886
C -0.747318312 -0.448026493 2.201374655
O -0.312018784 -2.680247128 1.085288516
C 1.701648052 -2.384849033 -0.683169310
C 2.823987086 0.125045729 0.027944873
N 4.778317089 1.125237326 -0.835594544
O 1.278626472 1.114652328 1.863171769
H -4.201854623 3.046293183 0.177904165
H -4.791037232 -0.146809327 -0.907027249
H -1.978027546 1.525164053 -1.864217524
H -2.735974301 0.422944347 2.248471071
H 0.979000473 -2.367314662 -2.617637781
H 3.041558077 -3.926929216 -0.453220859
H 5.106270913 2.843485299 -0.040708707

