14

C 3.792322456 -0.024260871 1.039829113
O 1.325943796 0.858742101 1.464686884
C -0.246758434 0.577816965 -0.673704012
C -1.144536306 -2.058044333 -1.292562314
O -4.105132015 -1.018948169 0.207939699
C -2.894876061 1.436112505 0.014504517
H 3.821163267 -2.049456076 0.591447541
H 4.704764451 1.002559500 -0.515070593
H 4.864700382 0.278405753 2.769047872
H 0.622567588 1.534964835 -2.296220803
H -0.437497619 -3.510634853 -0.008962858
H -3.730117415 -1.832414038 -1.636891163
H -2.960115379 2.341107392 1.858828536
H -3.832744321 2.612542078 -1.395835563

