12

N 3.108727334 -0.060589363 1.683565792
C 1.433046443 1.495734139 -0.182457479
O 2.183656602 3.376223226 -1.151935736
C -0.935785706 0.257696755 0.374111972
C -3.119119259 0.130473173 -1.310147028
N -1.485563369 -2.100362992 -1.057850241
H 4.251224001 1.032285421 2.761159211
H 4.098722139 -1.447467189 0.808445056
H 0.927585485 -0.458895461 2.423505725
H -3.043448030 1.029908240 -3.151407422
H -4.985527826 0.058642510 -0.463760768
H -2.320648272 -3.344171316 0.137615318

