8

O -1.465607955 1.518521855 -0.475834096
C -2.366587627 -0.757133644 0.691394456
H -1.744174675 -1.452501608 2.496999101
C -4.117288812 -1.508621599 -1.397057592
H -4.602504076 -3.500362869 -1.513089233
H -5.557620149 -0.178436180 -2.006689457
C -1.397535145 -0.849181882 -1.795058140
H 0.263254515 -1.645165858 -2.654903369

