14

C -3.594852406 -0.545545715 0.516134547
C -1.613819175 1.189947048 1.605811687
C 0.701401029 1.751360208 -0.011535361
C 1.783172254 -0.501173812 -1.348573985
C 4.022192426 -1.495480198 -0.844452937
O -1.844249185 2.129392984 3.665579318
H -5.294642933 -0.472603685 1.668769349
H -4.033950888 -0.039566613 -1.436283374
H -2.867591326 -2.478411717 0.497409156
H 2.100915472 2.647739531 1.204862278
H 0.097833408 3.158245660 -1.410373944
H 0.627953402 -1.348984396 -2.820994308
H 5.243134932 -0.709803922 0.602904345
H 4.718714352 -3.127776756 -1.863717106

