14

C -3.576928751 0.052848610 0.908030467
C -0.803839812 0.226622987 0.572839880
C 0.502288410 1.602381891 -1.452719343
C 2.367364834 -0.520636252 -1.824237004
C 3.144860088 -1.111917535 0.759181332
O 0.616168598 -0.873964733 2.247787576
H -4.085778498 -1.199556362 2.456596209
H -4.372930244 1.936126932 1.210365955
H -4.399256680 -0.670219962 -0.841843074
H 1.352320575 3.376714914 -0.766914375
H -0.731701370 2.020379275 -3.044092389
H 1.852470306 -2.072610247 -3.059394446
H 4.366833307 0.270897758 1.692121130
H 3.775450036 -3.027743385 1.144863228

