12

O 3.530957591 2.617010732 2.202841177
C 3.920789439 0.804848076 0.916006529
C 1.838305581 -0.970554985 -0.020538488
O 2.369426790 -2.901101575 -1.108142146
N -0.559977213 -0.249819904 0.666150984
C -2.691633484 -1.102202737 -0.799495502
C -1.606549607 2.175359948 0.084193440
H 5.822751899 0.222536775 0.280155526
H -4.190800538 -1.944136064 0.313023438
H -2.108703582 -2.158363184 -2.462376087
H -3.370798805 0.801531814 -1.750405102
H -3.091865478 2.466675989 1.522143345

