14

C 3.127088385 -1.731610888 -1.000002323
O 1.100580331 0.027836535 -0.921029988
C -1.896552722 -1.288193739 -1.032677369
C 0.312595321 0.881762764 1.586008000
C -2.484740939 0.653769726 0.990393708
O -3.613864431 2.997192391 0.302815005
H 3.387339351 -2.261394492 -2.968651838
H 2.630661716 -3.397760888 0.110673700
H 4.833407897 -0.821645417 -0.281201055
H -2.501303614 -0.610289603 -2.903168387
H 1.028299686 2.779651088 1.941909173
H 0.972783331 -0.461055115 3.002265493
H -3.626074102 -0.068091046 2.545438904
H -3.189092359 3.329198846 -1.429341975

