13

C -3.151420026 0.548798255 -1.178553284
N -1.260010798 0.145457813 0.957242526
C 0.396907644 -2.094246931 0.475925899
C 2.560949323 -0.338271597 -0.377061854
C 0.978036656 1.818735407 0.666148773
O 1.235417884 3.957577361 1.253425708
H -2.179894648 0.217245013 2.639575403
H -3.797664863 2.502886222 -0.945820757
H -2.008544601 0.462725822 -2.909662563
H -0.473392192 -3.310275129 -0.931779071
H 0.795465434 -3.124209558 2.210887876
H 4.364721992 -0.534349371 0.592882920
H 2.877016449 -0.264035293 -2.407720238

