13

C -3.814321079 0.702425525 -0.395491219
N -0.945700362 0.292409418 0.563131261
C 0.550286074 -2.011424374 0.059825554
C 2.980842726 -0.399994209 0.086600007
C 1.252854670 1.880179115 0.388533417
O 1.424450854 4.107405714 0.434700163
H -2.343929584 0.245403293 2.041560101
H -3.874065167 2.747711315 -0.665687454
H -3.860604761 -0.272015644 -2.216721933
H 0.076482394 -2.807942178 -1.778834350
H 0.365320324 -3.444488184 1.521825059
H 4.228844825 -0.699413415 1.695709701
H 4.084946962 -0.376423863 -1.648196468

