16

C 2.488956011 -2.336973011 0.347571808
C 1.428832297 0.301847995 0.039249631
O 3.361748528 2.045831165 0.708796604
C 0.093761521 1.094373280 -2.396815970
N -2.297194276 1.661133193 -0.885249554
C -3.280903626 -0.436210357 0.642800848
C -1.001059435 0.934779899 1.492255701
H 1.036775826 -3.788902373 0.155494451
H 3.410427684 -2.544357754 2.181569399
H 3.909463536 -2.655669218 -1.113151829
H 3.312879323 3.247775858 -0.660545339
H -0.340018289 -0.425805638 -3.730146706
H -3.339645139 3.246243573 -1.094847677
H -3.139292955 -2.271317973 -0.248232591
H -5.025188302 -0.037146441 1.642466856
H -1.072069712 2.166804496 3.126831893

