16

C -0.538666621 2.299438345 -1.644892565
C -0.870194711 -0.230476346 -0.252771259
C -3.095636615 -1.720285306 -1.316940971
C 1.465919514 -1.771022600 -0.321469664
C 3.765780402 0.691817982 2.568870960
O 3.418170554 -1.191574234 1.015268456
H 1.189696792 3.272876258 -1.077353273
H -2.129266145 3.559606217 -1.268301065
H -0.438753040 1.975443761 -3.680052636
H -1.259770217 0.195475236 1.752272794
H -4.824644575 -0.597864465 -1.256451443
H -3.416263499 -3.455681315 -0.249963788
H -2.751735468 -2.233580161 -3.288349279
H 1.714651144 -3.466255542 -1.431384599
H 2.292393843 2.060299267 2.894064292
H 5.550158452 0.659046861 3.541130289

