15

C -3.333679236 0.836563066 -1.932759610
N -0.955518793 -0.526770115 -2.010480285
C -0.816287779 -2.729467389 -0.342916090
C 0.545442612 -0.387337334 0.260852919
C 3.178587428 0.167037711 0.280091143
O 2.919665791 2.514730345 2.654993093
H -4.674992420 -0.034183502 -3.238861698
H -4.169143445 0.873810324 -0.029831198
H -3.017258221 2.784028147 -2.535048982
H -2.488343551 -3.189830524 0.761600220
H 0.147357876 -4.358760321 -1.138046381
H 0.998551901 1.687773494 2.396078296
H 3.988326229 1.328889445 -1.203276023
H 4.499774501 -1.120415085 1.184158515
H 3.641715120 1.950636873 4.236235279

