11

C -2.052608195 -0.961917595 1.439488425
C -1.153264421 1.519162869 1.446470907
N -0.697926899 3.666247469 1.732611857
O 2.173308650 1.121358210 -1.525172255
C 2.491720831 -1.040197723 -2.414452103
O 1.230325695 -2.971755695 -1.850827832
H -3.966723012 -1.047155374 0.688307022
H -1.879971906 -1.814175517 3.304702950
H -0.645778225 -2.039032346 -0.010206146
H 0.688961547 4.674900409 0.884066963
H 4.013816480 -1.302649067 -3.828812632

