18

C -5.568730435 0.029049664 -0.247942159
C -2.890151122 -0.569375445 -1.113646313
C -0.884588377 0.501216312 0.653692190
C 1.775246025 -0.097444880 -0.210688646
O 3.511783088 0.965659876 1.495911452
C 6.027623628 0.478316119 0.832637273
H -5.936621391 -0.758229213 1.625174143
H -6.972913598 -0.746379628 -1.544400785
H -5.873917746 2.068220489 -0.135569878
H -2.598969214 0.180907923 -3.020511177
H -2.654905882 -2.620457328 -1.261898502
H -1.087722767 2.554350853 0.795403792
H -1.145247126 -0.250973960 2.562279690
H 2.053189437 -2.157961769 -0.319455272
H 2.100387861 0.661252172 -2.122085072
H 7.230423157 1.384227334 2.236378146
H 6.485173717 1.247955442 -1.040471015
H 6.429940689 -1.558371606 0.815192115

