17

C -3.713796002 -1.086783819 -0.207458575
C -1.273515405 2.343915033 -1.054825885
C -1.213334072 -0.341917407 -0.202899006
C 0.872309787 -1.835516987 -1.542879990
C 2.839599134 -1.128124696 0.428088749
C 2.635055122 1.535728246 1.353554471
C 1.032520182 -0.250229426 2.434176195
H -4.337380489 -2.875079271 -0.995955588
H -5.132876197 0.080776079 0.693456034
H -1.511955907 2.632859978 -3.078044739
H -2.364250036 3.658185066 0.095321735
H 0.477512627 -3.859153867 -1.441987418
H 1.200049297 -1.313830236 -3.518628149
H 4.573104284 -2.186250137 0.708646125
H 1.098130131 2.803476982 -0.294719419
H 4.050249436 2.777063732 2.129556294
H 0.595133376 -0.760203485 4.357554317

