10

O -2.754937665 3.160290023 0.417434718
C -1.110757016 1.616092780 0.194955221
C -1.343386592 -1.238413742 -0.014072242
N 1.288579697 -1.962260049 -0.239402543
C 2.949486047 -0.074600284 -0.191469942
N 1.470601897 2.043812050 0.066518038
H -2.248357611 -2.005311412 1.673104948
H -2.468355691 -1.745087640 -1.666713724
H 1.857728016 -3.761119411 -0.414143949
H 2.203260299 3.793568711 0.158286181

