10

O -2.599158130 3.314510780 0.142175850
C -1.085481854 1.627663290 0.128967213
C -1.488163103 -1.207068893 0.246495800
N 1.063353104 -2.288179357 0.336714727
C 2.758362643 -0.407805846 0.153380793
N 1.529891544 1.865886681 0.005708617
H -2.551039599 -1.742470653 1.929044239
H -2.527304752 -1.889516913 -1.397400445
H 2.806165646 -2.244038227 -1.356359732
H 2.405570504 3.547623710 -0.110203272

