19

C 4.021866959 0.324534592 0.488254662
C 4.171059098 -0.613378058 -2.183951626
C 1.853511772 0.744942567 -1.294376394
C -0.591417456 -0.670821254 -0.916641269
C -2.229818302 0.396744296 1.204389828
C -4.706192517 -1.013514148 1.466627311
O -2.848646066 2.974832263 0.765613639
H -1.172106314 0.246987129 2.987078180
H 3.767021706 -1.065181018 1.969798299
H 5.186046382 1.918988930 1.020692178
H 4.022906667 -2.630341578 -2.497524823
H 5.427756866 0.352428612 -3.475350643
H 1.641311704 2.653436374 -2.015500305
H -0.169696404 -2.651164073 -0.484302337
H -1.686863931 -0.654842977 -2.671979728
H -5.801766888 -0.855180723 -0.274989941
H -5.823264658 -0.224820604 3.007386329
H -4.370737387 -3.012297482 1.850545790
H -1.329218692 3.955924229 0.873659920

