13

C -3.815970507 1.910303069 -0.140779891
N -0.711681290 -0.869303818 0.188521554
C 1.432394412 -2.714201104 0.273877025
C 3.236013711 -0.445298125 -0.007947073
C 0.774485128 1.053356623 -0.066334168
O -0.003755131 3.257022080 -0.289120330
H -4.767332659 0.274839122 0.602615633
H -3.901341039 3.597693723 0.997502536
H -3.914999262 2.174884965 -2.159927821
H 1.429805450 -4.043533765 -1.301407347
H 1.556701976 -3.741029563 2.056393185
H 4.444593421 -0.037375098 1.605948277
H 4.322765423 -0.360825081 -1.752710549

