14

O 3.242153488 1.337186231 3.546889986
C 1.286513773 2.400625450 3.120522173
C 0.212258347 2.875201877 0.532118342
C -2.548893021 2.017911255 0.319344761
C -2.831801765 -0.796364396 0.477844652
C -3.857909483 -2.227408731 -1.297484086
H -4.005268247 -4.257519832 -1.083994621
H -4.593347805 -1.418899746 -3.033069616
H -2.108201481 -1.690124559 2.183344211
H -3.342348789 2.701113938 -1.458260757
H -3.644065126 2.908351660 1.836342269
H 0.309199785 4.920511251 0.217575545
H 1.406477612 1.949111883 -0.869513975
H 0.113031039 3.130691243 4.707374257

