17

C 3.548325251 -0.252075972 -0.898388858
C 0.732400530 1.756313803 -1.002531778
C 0.661430316 -2.041799302 0.734943100
C -1.894944736 -1.923197256 -0.507147954
C -2.041243987 0.884047254 -0.930710922
C -2.200614191 2.575113123 1.413064177
O 0.442226772 3.200346831 1.143273893
H 4.551680836 -1.543895283 0.401767283
H 3.661915158 -1.015502121 -2.801199729
H 4.714300916 1.449134400 -0.829327626
H 1.626243047 -3.846420779 0.592420580
H 0.731265542 -1.328330539 2.660329415
H -3.445721249 -2.776131322 0.578511213
H -1.827217556 -2.884118020 -2.332960480
H -3.192669724 1.499233175 -2.523610583
H -2.602449693 1.646723181 3.217578903
H -3.375720861 4.258503321 1.230119980

