14

O -2.648446968 3.395134339 2.613513718
C -1.771972339 1.708744276 1.308828415
C -2.701942318 0.186354321 -0.661788401
N -0.317528451 -1.171350026 -1.440056515
C 1.741906305 0.820344435 -1.327101726
C 1.046373537 0.741364843 1.511432396
C 0.673813597 -2.108223837 1.061745382
H -4.009239015 0.653686578 -2.152732405
H -0.479393547 -2.364426555 -2.928715179
H 1.282307431 2.501175131 -2.415052602
H 3.592438546 0.041599278 -1.811828987
H 2.225616439 1.519241255 2.992136674
H 2.414647690 -3.187606241 0.808056755
H -0.749144354 -3.109893635 2.149414575

