13

O 2.063006678 -1.175535014 3.148149421
C 0.858782863 -0.415077380 0.997988725
C -0.775784126 -2.049908835 -0.810446541
N -0.977190796 0.597917245 -1.770524109
C -1.337038473 1.508554759 0.882864720
C 2.080687050 0.759013751 -1.421323546
H 3.783489800 -1.540042340 2.693057147
H 0.247848069 -3.277768986 -2.098191716
H -2.566888770 -2.813299986 -0.122161988
H -0.853900283 3.491320718 1.135440222
H -3.179501375 1.022355798 1.700463326
H -1.999035858 1.131535897 -3.297051997
H 2.398424202 2.794255912 -1.058398677

