16

C 3.743876794 -0.452210082 -0.666744510
C 1.312584888 -0.873496195 0.819912103
C -1.089263933 -0.322421103 -0.690827217
C -3.481751410 -1.117767579 0.763604406
C -1.613529045 2.362810386 -1.473888281
O -0.359381160 3.899894246 0.014074812
H 3.954691655 1.519875863 -1.230649519
H 5.397170043 -0.960289464 0.456970075
H 3.774504077 -1.603368309 -2.381201144
H 1.233093785 -2.841538447 1.451752370
H 1.326906801 0.279643392 2.534372952
H -1.067599905 -1.409703186 -2.453621610
H -3.600325261 -0.118854117 2.566499656
H -5.190117986 -0.708772548 -0.313380294
H -3.419178760 -3.140917930 1.153909461
H -0.788252690 5.605313662 -0.451359120

