16

C 3.836463510 -0.753180696 -0.990845768
C 1.498853699 -1.143586246 0.639291854
C -0.931555875 -0.028058937 -0.488466821
C -3.321392047 -0.921765696 0.847026442
C -0.742587269 2.791839973 -0.634191804
O -2.730590472 4.117088954 -0.069122610
H 4.185122723 1.249650224 -1.328732824
H 5.507776601 -1.553647914 -0.086088892
H 3.619115809 -1.672367615 -2.827711680
H 1.187120037 -3.163816365 0.943920354
H 1.796577820 -0.321913957 2.514891689
H -1.003470065 -0.591970220 -2.490891846
H -3.248863830 -0.474687184 2.860456155
H -5.005737672 -0.026379500 0.070539735
H -3.522416709 -2.963964675 0.651419284
H -0.900710481 5.157298677 -0.697585048

