17

C 5.298305354 -0.028461619 -0.570869973
O 3.089919173 0.113568912 0.891761380
C 0.907874357 0.090555392 -0.559229827
C -1.399981622 -0.294691753 1.061001869
O -2.218789275 1.907450376 2.354354429
C -3.537889069 -1.465103474 -0.191362568
O -5.765078875 -0.358731945 -0.146894591
H 6.901116157 0.032034864 0.718119625
H 5.422028369 1.558957345 -1.895461103
H 5.361225751 -1.798450746 -1.652444535
H -1.367232876 1.301271362 -3.083635796
H 1.033038137 -1.270415423 -2.123541390
H -0.791617140 -1.740119493 2.434668923
H -1.159154887 3.248573719 1.724612174
H -3.558735299 -3.441777504 -0.713021994
H -2.485365664 0.385611976 -3.471293382
H -5.496355134 1.276891665 0.659223097

