11

C -3.141849905 -0.388731819 0.308100324
C -0.546551730 0.776896286 0.371038748
C -0.111252580 3.179630387 0.516857670
C 1.713454777 -0.988149091 0.546770314
O 1.507415916 -3.034008224 1.529123275
N 3.887083320 -0.083127786 -0.442669063
H -3.406688597 -1.410847585 -1.460990882
H -4.612186050 1.037016445 0.493797172
H -3.279962070 -1.728249613 1.866403824
H 5.441333282 -1.169796577 -0.347403320
H 3.914632806 1.522279273 -1.452256416

