17

C 3.670425710 0.672226832 -1.426130537
C 1.894929863 -1.513515782 -1.421284864
C 0.750219268 -0.614410869 2.936404512
O -0.593698356 1.392347941 1.690715457
C -1.958844086 -0.193332759 0.154976005
C -4.506985544 0.706754453 -0.636563675
O -0.552061850 -1.231896171 -1.816894908
H 3.654178052 1.605391582 -3.273929667
H 5.585841319 -0.011908941 -1.089986016
H 3.199244648 2.119764319 -0.032356193
H 2.587514715 -3.279232295 -2.210140603
H 2.775182150 -0.286225591 3.086899769
H -0.055910269 -0.878220510 4.818043044
H -0.964238632 -2.098992033 1.782577123
H -4.377897748 2.542088231 -1.579432056
H -5.365981644 -0.648115023 -1.924429471
H -5.697461791 0.920777860 1.028561527

