14

C -4.245404968 -0.579101506 0.277431864
C -1.986072129 1.032175949 1.063197504
C 0.415077663 0.366126953 0.074440262
O 0.571972080 0.893406727 -2.299911854
O 2.371811870 -0.444559677 1.334039270
C 4.749862651 -0.504682807 0.035534788
H -5.985956017 0.518758035 0.402806859
H -4.081026555 -1.234303210 -1.672624088
H -4.475524288 -2.248931635 1.478756707
H -1.303885836 2.022184569 -1.588078346
H -2.007003718 1.575997970 3.044296139
H 6.170397652 -0.802084484 1.487661418
H 4.771605122 -2.056280859 -1.316029065
H 5.063352171 1.273324845 -0.952643518

