10

O 2.141740756 -0.053325804 3.013799323
C 2.350204949 -0.609599399 0.819312172
C 0.451291467 0.094867483 -1.148652998
C -2.062417310 -1.177148424 -0.927459554
N -1.337089703 1.976740851 -0.290381855
H 3.969182150 -1.743140730 0.142862539
H 1.237345933 0.417162995 -3.018989361
H -3.172280108 1.152732464 -1.139360025
H -2.226276577 -2.000228653 0.966079320
H -1.269426680 2.121066359 1.625630511

