15

O 0.526906553 4.375629321 -1.680103511
C 0.109872116 2.170027897 -1.168763332
C -2.387308720 0.875937154 -0.410046399
C -1.809329087 -1.817594182 0.386422480
C 0.942694488 -1.740310450 1.268917342
C 2.773364782 -0.482249358 -0.430763448
C 1.932610435 0.879023681 1.571708953
H -3.638129950 0.983496963 -2.043691863
H -3.217729363 1.986764959 1.113545081
H -3.031251605 -2.423299461 1.930483511
H -2.057659736 -3.160646350 -1.162122267
H 1.640474934 -3.315374215 2.385203338
H 0.938741276 0.580958162 -2.629277020
H 4.362411631 -0.841190873 -1.654502843
H 2.591066247 2.230944844 2.936411013

