16

C 2.504371754 -0.901631722 2.046052622
C 0.523304451 -0.055083608 0.172864644
C 1.323096395 1.603013097 -1.991387230
C -0.229352450 2.669377972 0.134953449
C -3.955444749 -2.131531095 1.231158290
N -3.920549028 -1.424006220 -1.085318468
C -1.435509229 -2.047296667 -0.298583398
H 1.642868461 -1.324816272 3.873030032
H 3.932828620 0.558894552 2.328537179
H 3.466629632 -2.605260830 1.383375351
H 3.294118556 2.138380861 -2.120344616
H 0.403415275 1.337070239 -3.801080505
H 0.686869979 3.922973906 1.466161928
H -2.184267626 3.138988595 -0.243900620
H -5.040285626 -0.818727774 -2.501781374
H -0.695274272 -3.844559097 -0.971659813

