10

N 4.274024001 -0.342581533 0.211727391
C 1.936163839 -0.224742161 0.092975773
C -0.020739045 -2.232979719 -0.014523944
C -2.330582071 -1.189559012 -0.126403346
C -1.758977656 1.477337221 -0.086726751
O -3.728052039 2.778599852 -0.177627566
O 0.596373773 2.180240619 0.033554979
H 5.117710484 1.381741702 0.261025885
H 0.553867597 -4.193537692 0.007714108
H -4.637564694 0.617381197 -0.231700813

