11

N -2.495416626 -1.589792385 -0.741585110
C -1.059278949 0.424647425 0.025610948
O -2.063770732 2.377202257 1.018574475
C 0.729813911 0.628090804 2.055659083
C 3.138811093 -0.268447993 -1.635559662
O 1.226112211 0.778171115 -2.501101205
H -1.582558173 -2.926161006 -1.739398676
H -4.165647659 -1.070846228 -1.496560006
H 0.349857923 -0.335034779 3.822084584
H 2.111781794 2.108613007 2.001618320
H 4.631727065 -0.372630087 -3.116350640

