16

C -4.719562631 0.780543987 1.677245905
O -2.751071909 -0.810053515 0.874611870
C -1.262303679 0.278785588 -1.025052853
C 0.856174341 -1.496908302 -1.672942980
N 4.387406604 -1.715789401 0.929611895
C 5.398555684 0.408772819 0.310205611
O 5.126637739 2.323238028 -0.895173942
H -3.984651184 2.563879135 2.437634716
H -6.027408162 1.211138399 0.125996544
H -5.743812521 -0.210169859 3.160906470
H -0.502915648 2.111316298 -0.421848646
H -2.388531581 0.605647680 -2.747605226
H 2.086797215 -0.760381894 -3.136775858
H 0.248123213 -3.421613257 -2.075804432
H 1.951606699 -1.817158941 0.245848474
H 7.145010446 -0.083232326 1.522343618

