15

C -4.628429625 0.507962275 -0.948355068
O -2.287790999 0.911451703 0.279031763
C -1.032525719 -1.290607297 0.802118914
O 0.329838694 -2.433250003 -1.174216401
C 1.709931118 -1.271479849 0.843420051
C 3.178267706 1.075501927 0.251930426
O 5.658986060 0.336155009 -0.418173696
H -5.855674330 -0.717543428 0.184540600
H -5.523603246 2.347075033 -1.158576801
H -4.351157500 -0.343011918 -2.811031313
H 2.697416330 -2.602164458 2.060134068
H -2.111773480 -2.610943520 1.962329043
H 2.235399476 2.097889378 -1.275277839
H 3.190530932 2.282163338 1.941271957
H 6.592785041 1.807164595 -0.907052723

