15

C -5.137561849 0.364435063 -0.175647435
O -2.735536150 0.707833259 0.947019164
C -0.865638260 -0.765696465 -0.217872591
O -0.403580758 -0.533359778 -2.601911952
C 1.617320516 -0.619656673 1.037241114
C 3.753448333 0.570135928 -0.266645477
O 5.518689410 1.345365627 1.562288876
H -5.796828410 -1.587717749 0.057503459
H -6.429812168 1.633584614 0.798675663
H -5.096672503 0.826337191 -2.186334098
H 2.051488646 -1.791727517 2.673078452
H -1.249275585 -2.838507137 0.283590840
H 4.559297793 -0.786514425 -1.613638102
H 2.981088523 2.110200642 -1.444353922
H 7.170423502 1.385550955 0.825108189

