17

C -3.488448467 -0.915390724 -0.041401670
C -2.758369313 1.644313591 -1.051156245
C -0.777289822 -0.174268880 -0.197438226
C 1.214495554 -1.521795900 -1.795885405
C 3.382673409 -1.469754865 0.177888745
C 3.372202380 1.239183333 1.031225568
C 0.918330665 0.204242374 2.061945238
H -4.174334315 -2.314925123 -1.367546400
H -4.363165783 -0.996522430 1.807786164
H -2.949770961 1.971616197 -3.061831664
H -3.136196412 3.281639976 0.118073282
H 0.670068689 -3.433746886 -2.335925517
H 1.790406768 -0.496896738 -3.496862964
H 1.681630523 -1.943142824 2.354253536
H 3.115774444 2.695272360 -0.395755705
H 4.783307799 1.726958684 2.438960169
H 0.308531144 0.699601934 3.961603347

