16

C 2.433935199 -0.097515481 1.731870272
C 1.645117159 -1.655357453 -0.398400187
C -2.291404344 -1.442186992 -0.926562312
C -2.452184322 0.993229091 0.339979531
C -0.914188782 2.102909927 -1.881921064
C -0.133923870 -0.644779561 -2.467675522
H 2.761496338 -0.940256212 3.566701704
H 3.113466446 1.801462214 1.412742905
H 3.877513086 -1.173687882 -0.351864642
H 1.584779565 -3.683780064 -0.117746662
H -3.122238611 -3.276124187 -0.577470276
H -4.231202277 1.823573824 0.949543895
H -1.086437715 1.009824665 2.053826899
H 0.561149297 3.483509346 -1.462348196
H -2.138868429 2.819003652 -3.371178299
H 0.300009140 -1.272866246 -4.376225038

