14

N 4.581356434 0.759786404 0.095219274
C 2.412158751 -0.333212403 -0.077058628
O 1.507342746 -2.648881889 -0.401896691
C -0.784408345 -1.354473011 -1.502668980
C -2.857920898 -1.018482729 0.453439047
C -1.707750922 1.559753317 1.238411909
C 0.383114098 1.314993249 -0.805422005
H 6.263343473 -0.096952172 0.377722540
H -1.115489495 -2.130385732 -3.375898892
H -2.928358909 -2.501659525 1.881891774
H -4.717586639 -0.857678790 -0.421019453
H -1.036314582 1.709863201 3.184060189
H -2.977959703 3.137681604 0.877074070
H 3.130610154 2.509684663 -0.861074288

