14

C -2.373404436 -0.700615356 1.085154629
C -0.590070913 -1.497637849 -1.982540382
C 0.143552932 0.786589277 -0.725443579
N -0.644252026 3.172695810 -1.502206772
C 2.538041647 0.345322996 0.596343575
C 3.051350052 -2.082422537 0.168567784
O 1.258596490 -3.216809709 -1.280477458
H -4.208165836 -0.341767703 0.250002281
H -2.209535229 -2.635006726 1.750080164
H -2.044860129 0.574792704 2.672794616
H -0.895768885 4.444976355 -0.106970234
H -2.130764490 3.105384730 -2.694095703
H 3.647356066 1.683726192 1.656960772
H 4.604756497 -3.264820564 0.763717809

