11

C -3.097366414 -1.509506992 -1.113080851
C -1.308785745 0.428149409 0.042894251
C -2.665945152 2.822227713 0.888496009
H -1.356841726 4.189918224 1.707922887
H -3.616547369 3.735893646 -0.701490129
H -4.103082607 2.396858904 2.309750316
H 0.159067810 0.914758346 -1.329438372
H -0.329546769 -0.415158657 1.656867004
H -4.055165804 -0.734917268 -2.771045162
H -4.553059070 -2.073460832 0.239169502
H -2.094912644 -3.212136492 -1.706359498

