16

C -2.660355456 -1.700128013 -0.879088612
C -0.932667942 0.530924337 -0.359756365
C -2.236015300 2.824054757 0.766416470
C 3.416447879 -0.412178955 1.506241753
C 4.408652096 -1.901693798 -0.358007556
O 4.004984240 -3.304915733 -2.090870595
H -4.120679472 -1.162360580 -2.237452701
H -3.601979130 -2.332297111 0.844668593
H -1.604228286 -3.283934331 -1.663968992
H 0.118037131 1.035484066 -2.058422486
H -0.902181765 4.346637785 1.160753671
H -3.649099602 3.553063815 -0.551434196
H -3.202480691 2.344661097 2.524866174
H 3.940389433 1.578538234 1.510381822
H 0.477491481 -0.167881606 1.112286410
H 6.382824336 -1.699790545 0.616858707

