13

C 4.239121779 -1.062356104 -1.019674485
O 2.428919960 0.233557885 0.443333226
C 0.297824636 0.903106030 -0.817970901
C -1.792763654 1.620363958 0.355552159
C -4.127751262 2.461238415 -0.996949886
H -5.753471006 1.295083492 -0.482733864
H -3.891563256 2.348518746 -3.043392982
H -4.610598736 4.413877604 -0.524879821
H -1.802997673 1.614417084 2.407425081
H 0.434582452 0.860160227 -2.872990293
H 3.516796267 -2.890419048 -1.667409616
H 4.818310119 0.056965548 -2.662775118
H 5.874446983 -1.374269838 0.187507999

