16

C -2.762939049 0.235887634 2.112676107
C -2.206601051 0.020394624 -0.664034283
N -1.525043224 2.327552122 -2.020430430
C 0.345112141 0.306663017 -1.770545085
C 2.664598193 0.904260596 -0.228768431
C 4.041007825 -1.170817275 1.100083711
O 2.943426432 -3.332510723 0.572211981
H -1.540748587 1.622276852 3.019535983
H -4.714501208 0.834618273 2.412969727
H -2.499200575 -1.584519709 3.049444055
H -3.430427015 -1.292609046 -1.664005785
H -2.287969975 2.359247950 -3.772930861
H 0.705559730 -0.835784234 -3.437612547
H 2.261238703 2.335848473 1.208517594
H 4.112059429 1.822351587 -1.399643134
H 3.854396274 -4.650368117 1.434127934

