11

C -2.522434040 0.646020053 -1.343637737
C -2.045623087 -0.958359373 0.527023413
O 3.606375125 2.033590672 -2.082841848
C 3.099382506 1.438743004 0.049450032
N 2.595070860 -0.990254624 0.855447572
C 0.458970842 -2.019365248 1.119390703
H -1.061349844 1.295985345 -2.620112679
H -4.428227032 1.312269663 -1.680255275
H -3.584529173 -1.662794470 1.687995007
H 3.201934314 2.788305467 1.644057439
H 0.453343011 -3.924134651 1.911779947

