19

C 4.319354127 -0.388222633 -3.070534174
O 2.629853726 -0.819175828 -1.078224701
C -1.225896442 0.069381994 4.619996609
C -1.683658634 0.376496977 2.175224738
C -2.412799784 2.892287174 1.086155466
C 0.167014845 -1.342996534 -1.915972002
C -1.523936317 -1.808245972 0.354266957
H 4.470642445 -2.045543114 -4.311314552
H 6.165800931 0.000875926 -2.248325902
H 3.739669697 1.238475045 -4.222926675
H -0.660228167 -1.746365907 5.380485481
H -1.386192763 1.625218230 5.942934267
H -2.712307220 4.291593710 2.566660208
H -4.145393934 2.749480892 -0.033106925
H -0.932651520 3.599544691 -0.169763395
H 0.166971249 -3.025373083 -3.137138742
H -0.547729256 0.239276574 -3.061755545
H -0.863670790 -3.491834364 1.347328788
H -3.420854494 -2.227779571 -0.366819141

