11

C -1.853151005 2.985268880 -0.102187904
N 0.195437857 1.183264750 -0.231302780
C -0.136331967 -1.279641217 0.250260550
O -1.996689329 -2.385808920 0.829998800
C 2.434394912 -4.893729164 0.254092329
O 2.306026365 -2.453916879 -0.064681300
H -3.559392640 1.974907193 0.437792001
H -1.464229646 4.437855054 1.308189536
H -2.158643960 3.881713833 -1.933647423
H 1.945460006 1.750484527 -0.697497194
H 4.479688186 -5.246193662 -0.097114613

