8

O -5.251247829 -0.209970739 -0.554125733
C -3.663099355 0.445004537 0.934998541
C -1.002256823 0.086916460 0.579453071
C 1.275544857 -0.187724959 0.322524036
C 3.449870312 -1.398728998 -1.803051738
C 3.984800000 -0.348679358 0.347974320
H -4.138778815 1.396210957 2.735008122
H 5.302240652 0.280841062 1.762670181

