12

O -4.084929066 -0.636987918 -0.312916480
C -1.986806704 -0.111648874 1.265604066
C -3.239137107 1.901089350 -0.142588170
C 2.440322001 0.156196144 -0.243290749
C 0.462715372 -1.217995686 0.462838280
C 4.797585606 -0.961006312 -0.956427241
N 6.704016985 -1.825442498 -1.530224381
H -2.361691196 2.642738937 -1.843133453
H -4.505043416 3.182228855 0.839932826
H 2.359272913 2.202689262 -0.297639424
H -2.391967518 -0.294980711 3.275483967
H 0.600797301 -3.264459191 0.513168527

