12

O -4.713789253 -1.019107340 -0.582511536
C -2.518416104 -0.618985386 0.310486802
C -1.706687366 2.072729054 0.117090171
C 1.715344730 -0.121631031 -0.791181973
C 0.001293971 -1.902777972 -0.012790573
C 4.349869803 -0.143799541 -0.172581600
N 6.454892821 -0.128589570 0.357723379
H -2.286945347 3.107153645 -1.564691814
H -1.260651151 3.195450324 1.780679441
H 1.205283328 1.109487895 -2.360952351
H -2.260558553 -0.959225170 2.471741437
H 0.475290554 -3.724375066 0.793811924

