16

C -4.891403875 -0.873362402 1.787193043
C -2.297567516 -1.249127374 0.729985328
O 2.554757371 3.292591317 -1.464053580
C -0.178377372 -0.438909490 1.787732787
C 2.415345415 -0.802215328 0.719162545
C 3.813636280 1.673195749 0.242028488
H -4.831263587 0.132029741 3.585797235
H -5.840994182 -2.682929349 2.089331054
H -6.070157584 0.214084408 0.484943483
H -2.179755300 -2.271626962 -1.052420699
H 2.105066955 2.343276306 -2.941139202
H -0.285149165 0.597839161 3.563027226
H 3.567546827 -1.928681600 2.020826347
H 2.305048016 -1.883523306 -1.044249107
H 5.736999737 1.257906872 -0.416400452
H 3.981689057 2.740084815 2.001862870

