16

C -4.068094157 0.198299091 1.176639578
C -1.424684254 -0.463670402 0.312856481
O -0.120651095 1.989339503 -0.757840779
C 0.312776300 -1.340038489 2.200838350
C 3.010542229 -1.540197883 1.292042242
C 3.284430195 1.081454035 0.441286331
H -3.992881924 1.434491574 2.824166535
H -5.095226239 -1.514601656 1.686234935
H -5.124151577 1.161785215 -0.308338864
H -1.473231866 -1.645552269 -1.397451524
H -0.372692523 2.155725901 -2.572621367
H 0.004395484 -0.728374412 4.134354362
H 4.275694178 -1.956809909 2.865423565
H 3.315502149 -2.924793695 -0.209481564
H 3.952240283 1.613925264 -1.424242682
H 3.485438171 2.515561692 1.880561369

