8

N 2.425892524 0.236920992 0.269616524
C 0.119279475 0.836455087 -0.297251293
C -0.151023529 3.553652314 -0.799593239
N 0.596504410 5.179238776 0.807288336
H 0.102631479 6.959899168 0.276204203
H -1.170123537 4.036904133 -2.535295781
H 2.863951562 -1.542427854 0.791093289
H 3.839951529 1.539960458 0.396017092

