12

C -2.000501454 1.882884201 0.419405740
C -0.842161531 -0.649436036 0.973932001
O -1.707348996 -2.408061617 2.071687513
C 0.934669369 -1.620792775 -2.282350213
C 2.475569909 -0.851584726 -0.348734689
C 2.707994563 0.097736711 1.785142142
H -3.764382231 1.565180743 -0.597435780
H -0.761737073 3.088254589 -0.684505668
H -2.442837680 2.795209127 2.213203093
H 0.741919478 -0.436691462 -3.941977483
H 0.494714350 -3.607756137 -2.476035084
H 3.776304910 0.639167831 3.412177854

