8

O -4.384751652 1.295172706 -0.519397027
C -2.357460193 0.740190095 -1.089733114
N -0.139810329 0.157284003 1.460613957
C 1.902701967 -0.573260779 0.302355821
O 2.023283917 -0.426995977 -2.094225464
H -0.183072925 0.195080529 -2.420434768
H -0.266564748 -0.072467463 3.348420309
H 3.537750703 -1.341876890 1.315892230

