8

C 0.122105164 -1.484503421 -2.241268474
C -1.712986106 -0.336516381 -0.970784303
O -1.475376327 1.101643737 1.127211108
H 0.274361664 1.187069770 1.605446743
C -4.310624084 -0.536778690 -1.775362904
N -6.363831606 -0.718624559 -2.445556863
H 2.076866685 -1.343029491 -1.651620274
H -0.317248261 -2.588489625 -3.898724884

