16

C -1.873269237 0.916601773 1.997026664
O -2.643653829 -0.835214935 0.115220117
C -1.520220568 -0.309522777 -2.241716660
C 1.214685320 -1.306582475 -2.341237537
N 2.254431720 -1.520114951 0.206418016
C 2.108472071 0.488931032 1.743557358
O 2.505304523 2.796769871 0.860555369
H 0.303853334 2.583676133 1.417242720
H -3.020036270 2.661742779 1.825274105
H -2.285881317 0.091927069 3.839181182
H -1.572664927 1.726456905 -2.623710359
H -2.657651163 -1.247461543 -3.683228396
H 2.415130742 -0.075217185 -3.472047949
H 1.274066487 -3.192059664 -3.165199645
H 1.961549493 -3.195252394 1.059861609
H 2.505294205 0.054076535 3.724905040

