15

C 3.268062030 -0.678644474 1.654402744
C 0.999373838 -0.173885946 0.050978102
C 0.594499959 -1.447444834 -2.230562174
C -1.513469540 -0.077480736 1.040953557
O -2.453921698 -1.459296175 2.848670217
C -2.330880931 2.366210759 -0.101359467
O 0.160145521 3.209504671 -0.375509330
H 4.875260247 -1.194144413 0.477203845
H 2.896354980 -2.201531275 2.995975483
H 3.722979976 1.025830778 2.714347255
H -0.985267542 -1.021363541 -3.446331781
H 1.909946119 -2.899861045 -2.814440341
H -4.210850381 -1.062654189 3.115319492
H -3.386502032 2.173439930 -1.888042794
H -3.538553345 3.459361689 1.207457212

