17

C -3.901560928 -1.125970824 0.706154257
C -2.098512497 0.540467171 -0.801359339
O -1.774201913 2.926473869 0.253555439
C 0.370929182 -0.689570814 -1.305010582
C 2.664908297 0.581905860 -1.726619327
C 3.509538131 -0.041953677 1.359218699
O 1.477890703 0.244656473 2.784244880
H -5.708389473 -0.159220519 0.893831556
H -4.217273087 -2.937673067 -0.233597682
H -3.105788224 -1.455959599 2.576821114
H -2.876435622 0.776346452 -2.730857717
H -0.613968654 2.568917523 1.671137157
H 0.360785283 -2.741616041 -1.465198130
H 4.027413796 -0.360645935 -2.936041005
H 2.516426071 2.614845446 -1.948620668
H 5.128255552 1.230595813 1.731556048
H 4.245446598 -1.982388467 1.156321337

