14

C -2.884545136 1.459888245 -0.565543326
C -0.586253534 0.512514474 0.895365712
C 1.783556284 1.969074440 0.262356819
N 3.715655454 0.731341282 -0.441438889
C 3.035445871 -1.901325377 -0.424850608
O 4.473926090 -3.566500448 -0.909713023
C 0.254055517 -2.177304646 0.290009409
H -2.590475009 1.271915846 -2.600133777
H -3.268083535 3.445215898 -0.155138918
H -4.562207934 0.373875265 -0.060947220
H 1.854294478 4.022440963 0.390735685
H -0.946220490 0.743028634 2.920737133
H 0.069470036 -3.503649877 1.853074754
H -0.755096292 -2.980038270 -1.320621005

