14

O 3.732063474 2.914061354 0.135966380
N 3.450721596 0.372642729 -0.560792649
C 1.147007387 -0.214766278 -0.617199424
C -0.158793932 -2.700042917 -1.075685022
C -2.491004833 -1.553704360 0.293359591
C -1.287636572 1.101738865 0.112780197
O -1.316065083 2.512586923 2.345845332
H 5.530082720 3.127859658 0.195755803
H 0.713572565 -4.360365115 -0.230874681
H -0.481738357 -3.057540851 -3.080524853
H -2.593349206 -2.138946078 2.263789493
H -4.325477445 -1.799144030 -0.602244245
H -2.047636043 2.180199423 -1.490708110
H 0.128253709 3.615420677 2.310532190

