10

C 4.670610259 0.329181995 0.064052664
N 2.435861302 0.738003153 -1.451618124
C 0.285229252 -0.584834180 -1.568522421
O -0.585310145 -2.638568709 -1.890180774
C 0.050177595 2.062204829 -0.736382127
H -0.502421995 3.607653222 -1.962951330
H -0.316662900 2.345253432 1.270714661
H 5.666840102 -1.318725742 -0.662433553
H 5.906948307 1.969396657 -0.071044650
H 4.193771471 -0.000505823 2.051253640

