14

C 4.637686052 -0.334150463 -0.881169616
N 2.356151879 1.133001852 -0.504289933
C 0.162791137 0.209407355 -1.083581791
C -1.013443680 1.617601538 0.980721919
O -4.489252543 1.304635585 -0.309738849
C -4.677687245 -0.845797194 -1.172342700
O -0.772033605 -1.498276860 -2.381905672
H 5.140939847 -1.344961169 0.849890359
H 4.384355944 -1.720459614 -2.393098463
H 6.197252891 0.925872978 -1.353000593
H -0.976330574 3.653111869 1.013326271
H -1.313433885 0.630542988 2.751800663
H -5.580554149 -1.146313688 -3.009809884
H -4.321160573 -2.527459162 -0.020887577

