16

C 6.238473203 1.052832716 0.076412814
C 3.720655254 0.236628179 -0.684826316
C 1.647764873 -0.422892380 -1.311408892
C -0.893409203 -1.228724209 -2.019255436
N -2.818743399 -0.275616215 -0.309825965
C -5.322597311 0.088103246 -0.720639064
C -2.846009879 0.002826766 2.217700055
H 6.288251915 3.094003155 0.361421120
H 7.626854836 0.574238977 -1.370393972
H 6.805940138 0.141937310 1.836489497
H -1.385878785 -0.537787936 -3.905801832
H -0.974400691 -3.297513468 -2.102423984
H -6.676309008 -1.212150706 0.080489010
H -5.961874784 1.478165185 -2.099592664
H -3.312124377 1.828418628 2.994477251
H -2.108226123 -1.460323676 3.466973335

