9

O -3.672389362 1.566057538 0.171409781
C -2.326276349 -0.323421259 1.473755887
C 0.329105008 -0.499635386 0.701914278
C 2.503423490 -0.577573682 0.081237909
C 7.019653782 -0.770959655 -1.207052906
N 4.891547286 -0.681255301 -0.603618662
H -2.842658336 3.157921081 0.428401725
H -3.272529531 -2.107765937 1.059911289
H -2.402392684 -0.045563999 3.526187979

