9

O -3.647206626 1.674251993 -0.024754656
C -2.415709111 -0.204407706 1.393757393
C 0.263043603 -0.473249726 0.744353785
C 2.464726018 -0.626246469 0.225305753
C 4.991092370 -0.815836607 -0.378793145
N 7.100484360 -0.970207691 -0.879787433
H -2.808276036 3.260870696 0.237357746
H -3.384859898 -1.980272390 0.993761861
H -2.563294700 0.135097900 3.433440901

