13

C 1.010809213 -1.332728008 0.772549633
C -1.682791325 -1.896908407 -0.072855443
O -3.114726515 0.509667734 -0.037151921
C -1.659981745 2.324212843 -0.814477818
N 0.269899189 1.875193923 -2.342503049
C 1.978571239 0.980293216 -0.718956244
H 1.123139560 -1.134589789 2.819468883
H 2.189525222 -2.942273416 0.233819120
H -1.753193488 -2.646664635 -1.986764147
H -2.707660762 -3.119221191 1.220234822
H -0.591534298 3.645258413 1.198911531
H 1.098804196 3.029771194 1.548567253
H 3.962893841 1.039502776 -1.255073719

