14

C -3.144212139 1.029725560 -0.881785025
C -1.048670915 -0.139797857 0.747263529
C 1.043236630 1.671714979 1.200116174
N 3.143374631 0.687601644 0.573609528
C 2.837923420 -2.073899230 -0.497487844
O 4.753377315 -3.144696778 -1.154070257
C 0.271256560 -2.381107508 -0.324316083
H -2.402865890 1.574199706 -2.726577960
H -3.996174394 2.680270278 0.020890903
H -4.624330601 -0.368367583 -1.186789524
H 0.860755642 3.570042343 1.952364687
H 4.853911690 1.530483141 0.711850194
H -1.851074498 -0.516923772 2.635870010
H -0.682891955 -4.087446503 -0.892489586

