8

C 0.554941301 -3.103589584 0.065590599
O 0.112502143 -3.292390194 -2.154376939
C 2.435019901 -1.228120933 1.068319588
O 3.541792015 0.189653915 -0.847376154
H 2.800255433 -0.385222333 -2.414044527
H 1.441875754 -0.014239521 2.431981732
H 3.862327114 -2.283492533 2.148636291
H -0.410437667 -4.306501949 1.476808797

