17

C 2.396596062 -0.865824020 2.033468879
C 2.294264861 1.265294000 0.192130950
C 2.373562682 -1.455034012 -0.734909293
C -0.252604340 -1.173022415 -1.937810074
C -2.671734536 -1.714639352 -0.294956126
C -2.727670316 1.116151334 0.228010329
C -0.380777074 1.612313819 -0.918230302
H 4.212888696 -1.117701798 2.943504686
H 0.801704479 -1.270876837 3.250556306
H 3.740012550 2.707931805 0.100437772
H 3.935897478 -2.438287862 -1.611456318
H -0.403382129 -1.655443473 -3.928398610
H -2.271265835 -2.959908000 1.296587808
H -4.332201468 -2.432643061 -1.285696976
H -4.377072864 2.309637820 0.120829410
H -1.627305999 4.182994419 1.313092544
H -0.699394328 4.011464640 -0.769526903

