14

O 3.284841550 -2.861355929 0.328564225
C 1.810538115 -1.043289844 -0.987352572
C -0.678732913 -2.146449746 -1.886362015
C -2.746980388 3.391608318 1.846741450
C -0.606405932 2.346968358 1.244191277
C 1.530728957 1.306088614 0.615569555
H 2.417226240 -3.274316248 1.868745119
H 2.966761602 -0.554839974 -2.629990694
H -0.318014394 -3.844802078 -2.994437095
H -1.882020105 -2.648354825 -0.284213638
H -3.571725749 4.859689036 0.680665026
H -3.761137666 2.827109575 3.534159354
H -1.714753907 -0.798499579 -3.052566582
H 3.280221170 2.122072714 1.314806714

