19

C 3.540934627 -0.858749736 1.097329435
C 2.358832380 1.096112754 -0.658318504
O 1.470586665 -0.410855334 -3.028713873
C 0.128218163 2.474212292 0.124981743
C -2.106602187 -0.348096415 -2.177937440
C -2.326356379 0.945991815 0.255677847
C -2.863116266 -0.700160499 2.551076581
H 4.185939879 0.078802770 2.811594943
H 5.174863833 -1.777969233 0.225905836
H 2.193054210 -2.317769652 1.644689288
H 3.813399497 2.394030117 -1.332242745
H 2.303982702 -2.040317039 -3.184898112
H -0.093393156 4.290874292 -0.806160812
H -2.147377866 -2.395154693 -2.345830819
H -2.669289419 0.670822293 -3.854773274
H -3.823514011 2.356275789 0.072078822
H -1.491047505 -2.223520431 2.759670163
H -4.737772826 -1.563284327 2.423914794
H -2.780788703 0.448382442 4.259724651

