9

C 1.470708761 -2.093693808 -0.761636710
O 0.420697690 -2.577444799 -2.946743034
H -0.110021008 -4.319250438 -2.948293327
C 2.145767404 0.677668752 -0.795127854
C 4.251433704 1.322408799 0.858869733
C 5.998986643 1.858243779 2.188434113
H 7.546418530 2.325340726 3.384747931
H 2.451659677 1.392672879 -2.714670739
H 0.420384260 1.594881247 -0.084850498

