16

C -1.773867488 -1.366262766 -2.158553423
C -1.366604542 1.285555681 3.763792864
C -0.688539477 3.398282868 2.023776342
C 0.120637262 2.536069094 -0.202615774
C 0.073552147 -0.295019375 -0.209350077
C 2.705263436 -1.449835262 -0.518226228
N -0.881079439 -0.710828343 2.364499461
H -1.913522198 -3.417705662 -1.971719376
H -3.650130467 -0.553008111 -1.906868888
H -1.127104943 -0.950610022 -4.071852558
H -0.856590535 5.363192087 2.557642850
H 0.735820122 3.620180009 -1.825878402
H 2.620851846 -3.503049851 -0.318624983
H 3.461342197 -1.029013341 -2.389760205
H 3.998739187 -0.702721569 0.900591919
H -1.152536952 -2.481774655 3.011860218

