16

C 3.961129158 -1.336617858 1.084290627
N 1.784889769 -0.493987807 -0.352263809
C 0.007917178 1.042501866 1.070150411
C -1.634212948 2.762185748 -0.531072794
C -3.122061525 0.924768282 -2.131759639
C -2.608458360 -1.467977048 -1.573011069
C -0.627682661 -1.616746607 0.419405740
H 4.718373351 -3.054791111 0.231486877
H 5.421404873 0.118489381 1.010912789
H 3.533739476 -1.731804811 3.081299320
H 0.521245765 1.576599262 2.981482134
H -0.489449819 4.034280815 -1.689142203
H -2.876241510 3.933417628 0.635573156
H -4.412180309 1.534519332 -3.598824346
H -3.439083283 -3.106454144 -2.471205530
H -0.587625702 -3.130231529 1.800466064

