16

C 4.048061643 -0.437746402 0.349201848
N 1.479675398 -1.051464629 -0.332181501
C -0.341990785 0.057390604 1.499070545
C -1.192549862 2.367034245 0.065648367
C -1.901113255 0.777532293 -2.200423461
C -3.132222053 -1.429821947 -1.406313546
C -2.271718085 -1.928509371 0.988006738
H 4.591613754 -1.402414682 2.106112729
H 5.329161785 -1.080890802 -1.132827260
H 4.349673895 1.601860478 0.669068797
H 0.338958569 0.243699988 3.437869456
H 0.377169058 3.654565616 -0.279414659
H -2.804905804 3.429892015 0.824299480
H -1.954424602 1.479976015 -4.124116581
H -4.183649738 -2.694774757 -2.615180929
H -2.580036483 -3.598179156 2.118967686

