15

C -4.290043247 -0.284973704 0.969996987
C -2.400139620 -1.759738157 1.679790969
C -0.298231494 -2.589452194 -0.053013715
C 2.170470130 -1.487931762 0.791188417
C 3.452889433 0.408350143 -0.267008324
C 2.714740791 1.851503768 -2.536680629
O 0.726540169 1.713996788 -3.644978072
H 4.185261901 3.183606900 -3.212433217
H 5.231912359 0.987150239 0.573919462
H 2.980242360 -2.326511147 2.485191374
H -0.726020437 -2.031836005 -1.982830965
H -0.140573608 -4.652080814 0.020979418
H -2.299643210 -2.416751919 3.624983447
H -5.756847493 0.269624272 2.285767613
H -4.421808596 0.424561915 -0.948149768

