17

C -3.819524572 0.831730488 0.540634185
C -1.410699355 -0.390126059 0.377050572
C -0.113426861 -2.916969303 -0.143934656
C 2.646343382 -2.294882914 0.286374029
C 3.488504837 0.108006616 0.163570082
C 1.808300377 2.065060527 -0.816240781
O -0.267465675 1.179094729 -1.784109331
H -4.759343407 0.863673304 2.359108167
H -5.018259470 0.964416418 -1.115860883
H -2.068139118 3.358070101 1.152051142
H -0.466292113 0.222265354 2.113854314
H -0.505580011 -3.532852741 -2.073611386
H -0.713588156 -4.415507663 1.146113282
H 3.893139911 -3.772117957 0.965094036
H 5.397314890 0.602974568 0.707939368
H -0.436044477 3.854274424 1.380278903
H 2.487694921 3.862870127 -1.524257533

