12

C -3.695975204 0.874100132 -0.882265620
C -1.089539550 1.233453268 0.132731207
C 0.748004793 -0.479982121 -0.004253339
O 0.362618450 -2.780029865 -1.123734144
C 3.228821413 -0.053728485 0.995078150
C 5.332360657 0.205437683 1.797325320
H -5.102251258 1.106557232 0.612464621
H -3.929218071 -0.993780740 -1.711935683
H -4.117279666 2.285679230 -2.330538494
H 1.892861067 -3.745484233 -1.032375901
H -0.624074607 3.003829052 1.046382211
H 7.191528209 0.464240853 2.520689785

