12

N 0.911609854 2.222286043 2.696830760
C 1.134477388 0.473468802 0.660149176
C -2.613755338 -1.373570451 -1.890877837
C -0.883996344 -1.440844436 0.267864200
O -0.547436405 -3.088996854 -1.806160451
C 3.130413736 0.494632317 -0.838931309
O 4.925517192 0.567556489 -2.085364425
H 0.552868139 4.014425690 2.158403265
H 2.355933446 2.172897616 3.936682508
H -2.429116510 0.143060979 -3.261396663
H -4.466499957 -2.245292249 -1.745711646
H -1.537807852 -2.326448994 2.006252817

