15

O 2.346937046 5.633089556 0.909470287
C 1.880493622 3.621433880 1.642357063
C -2.038001501 -0.485906280 -1.883369709
C -1.710419310 -1.913545839 0.635172156
C 1.046127136 -0.918678979 0.780054756
C 0.865008339 -0.309341723 -2.075222189
C 1.350251514 1.352367761 2.469023539
H -3.029286838 -1.456396145 -3.404670407
H -2.901351397 1.364969646 -1.611688301
H -2.965525457 -1.413660839 2.189828409
H -1.752807076 -3.958546507 0.371702345
H 2.456421484 -2.335553770 1.289886235
H 1.654322639 -1.841779880 -3.203786832
H 1.682649690 1.464038840 -2.739027664
H 1.128950544 1.175321116 4.496643999

