15

O 0.398867800 4.978116509 -0.350883478
C 0.563370368 2.843445199 0.330810655
C -2.049358509 0.593258314 -0.979589936
C -1.692350108 -1.785638441 0.653616563
C 1.154928099 -1.456202429 0.937399192
C 1.747946172 -0.695269434 -1.708562900
C 1.501106064 1.147957938 2.029960111
H -2.501887464 0.302546286 -2.959755688
H -3.353943808 2.009908946 -0.254408613
H -2.719555945 -1.713855494 2.437204576
H -2.208507143 -3.516738801 -0.349938312
H 2.301167879 -2.943410294 1.789919465
H 0.857243983 -1.588797122 -3.318841049
H 3.566708110 0.154991179 -2.108496619
H 2.449316171 1.663893724 3.764961754

