14

C 4.176354847 0.963977094 1.824391395
N 2.375468962 -0.758891259 0.690958081
C -1.861549666 -0.313438819 -2.036271079
C -4.385854478 -0.647276721 -0.761384507
C 0.439812553 0.117209696 -0.670777884
N -0.400155705 2.132742070 -1.617055123
H 4.470003793 2.545723006 0.540252044
H 5.975973936 0.002809078 2.100320530
H 3.516755903 1.707251581 3.636529976
H 2.267375437 -2.540582970 1.327170021
H -1.742124039 -1.087194078 -3.942807640
H -5.873022885 0.281397794 -1.850646645
H -4.881858585 -2.645611926 -0.590840372
H -4.363418780 0.183260462 1.125758078

