15

O 4.004520218 1.951939990 0.581523833
C 2.486828633 -1.587850880 0.220987804
C 0.019678247 -0.925312296 0.930516639
C -0.964648778 1.598653386 -0.431741155
C -3.738769375 0.563692302 -0.432102338
C -2.257302479 -1.781682337 -0.737253744
O -2.242921852 -3.462349176 -2.273653183
H 4.834947173 2.538169714 -0.923256142
H 3.852500123 -2.333672321 1.545359916
H 2.886280264 -1.859788913 -1.770594483
H -0.347378848 -0.877822798 2.954043443
H 2.232445664 2.656654200 0.517791497
H -0.279632299 1.554954735 -2.394279806
H -4.994522809 1.023795770 -1.991234748
H -4.655311716 0.839094940 1.391471675

