14

C -1.724937263 1.911691092 -1.105193871
C 0.321893038 0.103453718 -0.306193741
C 0.457614396 -2.281822280 -1.844236222
O -0.421792351 -0.890882960 2.594883362
C 2.741992210 1.215233530 0.528840102
C 2.361329899 0.613044200 2.869465991
H -1.828047240 3.530040394 0.167615381
H -1.243628952 2.631091119 -2.976063401
H -3.560515289 0.974294526 -1.224418393
H 1.816185146 -3.592356626 -1.026312809
H 1.101343705 -1.788368585 -3.740125102
H -1.388614220 -3.189765121 -1.980828631
H -1.764313524 0.142187416 3.273916193
H 2.999670710 0.509684968 4.797896560

