15

C 2.467066217 -1.199770336 -0.583822307
C -0.007577802 -0.023755445 0.363387663
C -0.145713248 2.775426548 -0.379332416
C -2.287285044 -1.467354062 -0.696326641
C -0.064391076 -0.202647332 3.142601128
N -0.111544051 -0.344069749 5.306297403
H 4.102612613 -0.217061936 0.195006319
H 2.595629010 -3.187347556 -0.053558372
H 2.544809134 -1.067452204 -2.641439864
H 1.455305395 3.824169273 0.384887474
H -1.880576468 3.642210171 0.317920248
H -0.112913328 2.940664239 -2.435728020
H -2.219727316 -3.456670549 -0.161247628
H -2.278506113 -1.345074514 -2.756008875
H -4.057187943 -0.671266549 -0.002636149

