12

C -3.089160278 1.230635214 -0.209347073
C -0.747709334 0.642313998 0.486973654
C 1.511424800 2.219855836 0.545315528
H 1.623026469 4.181645627 0.008475214
C 3.414183723 0.796773749 1.385051935
H 5.374931160 1.278091396 1.694512956
O 2.807829380 -1.618709257 1.939345854
C 0.155668778 -1.907392154 1.420474379
H -0.778661177 -2.494550696 3.163324866
H -0.065897830 -3.392887530 0.006418039
H -3.558830315 3.114159370 -0.853915760
H -4.602968873 -0.145987768 -0.154392457

