14

C -3.585894708 -1.801729686 -0.959728782
C -1.362661062 -0.158947434 -1.694452901
O -0.757116221 1.691270980 0.158797730
C 4.295186552 1.930598709 0.880562429
C 2.777691121 0.681784443 2.423931121
O 0.228106800 0.403645519 2.288478179
H -5.244913448 -0.643152507 -0.568467753
H -3.152440894 -2.918496825 0.715342370
H -4.038191434 -3.098861282 -2.499068049
H 0.321904735 -1.285295409 -2.112214579
H -1.795681145 0.992274004 -3.353209801
H 6.295262402 1.951579733 1.287116898
H 3.604230210 2.945547990 -0.748223850
H 3.428285275 -0.324752779 4.086359627

