11

N 3.945636409 -1.068643468 -1.689618377
C 1.931064299 -0.272667864 -0.728336712
C 0.929095471 1.550502012 1.057816075
C -0.765201546 0.264644730 -1.036388527
C -2.206990278 -0.719312004 1.249967565
O -0.474940426 0.404933783 3.025165308
H 1.589897756 3.469863124 1.326785424
H -1.612698927 0.986973228 -2.751101691
H 3.572881468 -2.116104562 -3.264915182
H -4.071707352 0.141541432 1.445369007
H -2.346148387 -2.767503021 1.465960635

