11

N 4.108561660 -1.474759937 -1.505335478
C 2.950381097 -0.029972965 -0.223243249
C 0.975988061 1.453444922 0.804691021
C -0.762150168 0.093578916 -1.382414236
C -2.174906773 -0.840418013 0.983998931
O -0.417531510 0.355598401 2.744760867
H 1.283212213 3.486564693 0.894082947
H -1.742271400 1.576908156 -2.427538476
H 2.103606027 -1.639146872 -2.447191968
H -4.079752275 -0.098720068 1.295710011
H -2.188879786 -2.884851688 1.282436991

