8

O -3.169075208 -1.922088610 -1.076602277
C -3.185658198 -0.136070108 0.316236218
C -0.954057487 1.099151849 1.308734212
C 0.767908560 2.394178933 2.349747087
C 2.283602194 0.529684280 0.921848995
C 3.627822609 -0.934428486 -0.196882401
H -4.939008268 0.767969050 1.004854591
H 4.812153939 -2.223076950 -1.188591415

