11

N -3.674899372 0.374604076 0.508187360
C -1.145613034 0.152321280 1.274018998
N -0.225654899 -2.469749250 0.925185911
N 1.703908013 -2.488225405 -0.357217254
C 2.373676840 0.090569187 -1.070643328
N 4.237015529 0.752410765 -2.357719558
O 0.630648133 1.651254309 -0.115023245
H -4.434771248 2.060168423 0.964750049
H -3.933650443 0.002240988 -1.346413499
H -0.968423998 0.628332047 3.275691194
H 5.260232267 -0.796980069 -2.841761434

