11

N -4.259787352 0.436445269 0.910276803
C -1.962617604 -0.400150584 0.069757993
N -1.336205614 -2.583065015 -0.755324704
N 1.290358666 -2.492686463 -1.121516569
C 1.958728170 -0.243376354 -0.545574855
N 4.274157056 0.883077201 -0.762507836
O 0.012756407 1.229145826 0.251726392
H -4.676773846 2.236708754 0.455315715
H -5.661812769 -0.787085803 0.511605610
H 4.707704978 2.096902280 0.637234150
H 5.653491946 -0.375915092 -1.127411135

