13

C -3.630223090 -0.194497624 -0.746589350
C -1.018162364 0.923962937 -0.302603488
C 1.004988459 -1.124359284 -0.003568540
C 3.529698259 -0.093381912 0.417803839
C 5.583979221 0.792975134 0.759465604
H -3.664841153 -1.353080717 -2.455832910
H -4.210535836 -1.391002947 0.833188639
H -5.047703652 1.286143726 -0.967857382
H -0.493792882 2.158805607 -1.872599045
H -1.026700959 2.106015465 1.390926300
H 0.515757433 -2.366359877 1.575624635
H 1.043972111 -2.316601631 -1.692842589
H 7.413564434 1.571381066 1.060339823

