15

O -1.791817997 1.349267495 -1.683923706
C -2.633410569 0.694980949 0.768828573
C -0.698510579 -1.005061573 2.132776746
N 0.913952018 -2.338453479 0.357311419
C 0.817648570 1.883357029 -1.700144075
C 2.330116234 -0.551584732 -1.197299594
H -0.173358902 -3.425744047 -0.776131911
H -4.423696905 -0.294605563 0.500263682
H -3.008668887 2.413002721 1.876786641
H 0.518742369 0.125013868 3.363555125
H -1.672443657 -2.358595635 3.346161538
H 1.260897741 2.676294388 -3.549535980
H 1.251205393 3.333483063 -0.276371558
H 4.113551047 -0.079671855 -0.257509237
H 2.806408495 -1.483110485 -2.973774810

