17

C -4.210140486 -0.724634002 -0.389335417
C -1.405362296 -0.606849470 -0.996060033
O -0.798008193 1.654208235 -2.317665018
C 0.234672634 -0.865307010 1.371146707
C 3.067251190 -0.884669068 0.788506537
C 4.075370926 1.430541177 -0.082417722
O 4.270767700 3.002054051 1.739467405
H -4.707375655 -2.532090597 0.471511310
H -4.730943129 0.769873289 0.942797346
H -5.331355020 -0.487924337 -2.101872656
H -0.921608338 -2.119627484 -2.319553572
H -1.393515508 3.063437213 -1.339366597
H -0.259558230 0.677894820 2.661062969
H -0.251165370 -2.611034794 2.361778596
H 3.644755235 -2.585647061 -0.217182161
H 3.827394865 0.974139531 2.839170204
H 4.763655554 1.971213534 -1.948774831

