17

C 2.997184133 -1.410435492 2.252248482
C 1.741440922 2.401433327 -0.784247945
C 2.090709969 -0.391730059 -0.256937217
C -0.425669861 -1.155244779 -1.528152769
C -2.688408062 -0.850676769 0.246164701
C -2.377024868 2.027343634 0.122134473
C -0.549144056 1.702912014 -2.233642106
H 4.732220300 -0.455514873 2.824972238
H 3.359600892 -3.440184861 2.157513828
H 1.593504015 -1.085577039 3.729321292
H 3.551682331 -0.683238153 -1.724034012
H -0.419198797 -2.733630493 -2.850666561
H -2.598688873 -1.752491398 2.098863721
H -4.427166253 -1.436427258 -0.691681411
H -4.028911461 3.171318181 -0.302633384
H -1.437974755 2.867972125 1.766046800
H -1.171627854 2.583218385 -3.980279114

