12

C -5.067108909 0.744191533 0.266936249
C -2.799554364 -0.194396126 0.316792932
C -0.516887206 -1.111616861 0.367586578
C 1.775008354 0.475373098 0.113020305
C 4.172555251 -0.276731720 1.262433106
O 3.768023563 -0.549098117 -1.367626922
H -6.097562241 0.915037383 -1.495154598
H -0.234597196 -3.131926878 0.598932727
H -5.991168562 1.371349758 1.984038028
H 1.427067860 2.475932226 -0.195155872
H 4.266335574 -2.033183134 2.323030574
H 5.533534815 1.161534241 1.803644300

