12

C -4.858545827 0.490039678 0.400081647
C -2.366068444 -0.234844410 0.612860424
C -0.155298279 -0.951165034 -0.124805412
C 2.169443197 0.452011302 -0.357396986
C 4.348064812 -0.275349934 1.217243877
O 4.333248471 -0.802853035 -1.374536951
H -5.713555115 0.867322233 -1.426800199
H -3.522487744 -1.846743850 1.618568964
H -6.065607501 0.544942156 2.049227098
H 2.060121180 2.431524721 -0.922336034
H 4.172030871 -1.902261396 2.455868664
H 5.633427250 1.200008687 1.840459264

