10

O 3.788316539 0.554647732 -0.414511633
C 1.353527373 -0.050757817 -0.494932311
N 0.528769142 -2.294363882 -0.794637432
N -2.139245109 -1.959896626 -0.748788046
C -3.088695084 0.289823422 -0.448191693
C -0.711834660 1.858529864 -0.240419896
H 4.769797145 -0.967475053 -0.615481342
H -3.145081564 -3.561220969 -0.959771527
H -0.642872166 2.861095487 1.563500984
H -0.639755214 3.302249613 -1.714852778

