13

C 4.241410654 0.377451553 0.447409346
C 1.764639294 0.197376489 -0.068249273
N 0.586187431 -1.271231123 -1.905366840
C -2.060779031 -1.270775075 -1.455358666
C -2.483212812 0.409976574 0.380986588
O -4.586639522 1.345034301 1.463678242
N -0.208860411 1.447960049 1.146988150
H 5.605091071 -0.665874499 -0.653364644
H 1.455229239 -2.873690720 -2.432210276
H 4.909191300 1.609286554 1.929380950
H -3.365330958 -2.246136446 -2.671519598
H -6.030684588 0.444597604 0.840856373
H 0.009839691 2.277018729 2.838022177

