12

N 0.815047627 2.141851646 1.891316424
C 0.493197637 0.194182228 0.040955335
C -2.004821519 0.098209104 -1.324143568
C -1.404326934 -1.848979151 0.622424706
C 2.709566173 -0.558071633 -1.395210989
N 4.493816119 -1.113931341 -2.499821596
H 2.072556806 1.627638572 3.234785030
H 1.418230972 3.769966618 1.093491855
H -1.989688687 -0.452173025 -3.291717924
H -3.319044932 1.579404466 -0.822278569
H -2.310968055 -1.690223429 2.446324432
H -0.973565186 -3.747874075 0.003874865

