17

C 4.708514536 -0.905921646 -0.983931714
C 2.501569045 0.259843654 0.393066284
O 2.209927423 -0.003888074 2.635266847
C 0.705546540 1.844431884 -1.191386037
C -1.918438283 2.111941514 -0.058338812
C -3.567349049 -0.187099176 -0.248374698
C -2.994620568 -2.364750587 -1.337540630
H -1.182174094 -2.707060811 -2.231336338
H -4.326327576 -3.917532534 -1.367353554
H -5.418347580 0.009662396 0.621591772
H -1.729752134 2.613306963 1.938014032
H -2.900116291 3.696121903 -0.955840878
H 1.598166611 3.708377174 -1.335728099
H 0.637558483 1.109200808 -3.121284847
H 5.639956650 0.490660699 -2.185117057
H 4.020036381 -2.407284410 -2.225153286
H 6.048568521 -1.694787741 0.360007623

