12

O 0.504067644 -2.675736995 3.715963404
C -0.088995745 -1.572235582 1.867377430
C 0.567006352 -1.553212767 -1.008395522
N -2.002066204 -0.588690393 -1.306901480
C -1.921847992 0.498398560 1.091287149
C 1.600752437 2.736113952 0.332832927
C 2.314225943 0.746723993 -1.000468783
H 1.121584618 -3.212315600 -2.080251449
H -2.416669527 0.505499924 -2.823674885
H -3.542045408 1.311486806 2.053898463
H -0.422612058 3.005597326 1.127834037
H 4.144314862 0.673327616 -1.911662443

