17

C -2.929697478 0.347831438 -0.172528027
C 0.730087600 -0.147742284 2.684792997
O 1.057864508 -2.615331899 2.758306764
C 1.120815197 -3.690234802 0.529989679
C 1.230614446 -1.649049472 -1.397262571
C -0.035332568 0.561952695 0.032181941
C 0.855994534 3.148576272 -0.844602925
H -3.845565829 1.823967114 0.939020672
H -3.538271020 0.546547799 -2.138549349
H -3.583595005 -1.491808800 0.503984609
H 0.107626517 0.686274905 4.441511107
H 1.816936784 -5.603828186 0.476966023
H 3.229188663 -1.164574810 -1.772107114
H 0.326193903 -2.092012103 -3.195061210
H 0.271338083 3.501092001 -2.794081301
H 0.050790755 4.643640560 0.329033614
H 2.909746108 3.294227650 -0.740344278

