17

C -2.949470362 0.240548473 0.340102477
C -0.270725472 -0.340445197 2.329309605
O 0.333592578 -2.696300938 2.691488221
C 2.160405355 -3.316365773 0.674450983
C 1.375444246 -1.757300996 -1.554624695
C 0.651812234 0.556485926 -0.028344380
C 1.141506092 3.217936307 -0.764551613
H -3.794035322 1.957646699 1.080922115
H -2.947423487 0.258528386 -1.728254092
H -3.978634353 -1.439600391 0.918820047
H -0.666643466 0.810463227 3.976630827
H 2.235328857 -5.360415474 0.489326968
H 2.964916662 -1.362787390 -2.811894181
H -0.227887969 -2.358019231 -2.816266742
H 0.298989312 3.659083044 -2.599614423
H 0.466813432 4.567214253 0.639319198
H 3.183072278 3.452490115 -0.954395332

