11

O 4.349094202 -2.035728538 0.276610400
C 2.376830113 -0.871470011 0.085013676
N 0.052995290 -2.140446748 -0.669325195
C -1.924461596 -0.598390376 -0.713774294
C -1.034640606 1.845069307 0.098849136
C 1.594580006 1.653138045 0.511875860
H -0.013955287 -4.034076536 -0.843408996
H -2.295331668 0.677614025 1.730387555
H -3.789315146 -1.099601434 -1.367238810
H -2.118936656 3.549481688 -0.213751079
H 2.813880661 3.132299418 1.188162901

