16

C 3.014129572 1.600263829 -0.262977783
C 1.941008246 -0.688954933 0.951754478
C -0.846899641 -0.744690043 1.822297578
C -2.017884648 -2.100756924 -0.483694110
C -0.894960441 -0.090439609 -2.209362055
C -2.200270356 1.752542515 1.549721441
N 1.779871469 -0.322663725 -1.785381212
H 5.040676346 1.721954142 -0.529972010
H 2.066330045 3.402520957 -0.043744080
H 3.200582102 -2.168828185 1.602114325
H -1.113367711 -1.554204741 3.700296951
H -1.283740127 -3.981970910 -0.901531529
H -4.072533294 -2.094488268 -0.430010052
H -1.428884170 0.109359131 -4.187154557
H -0.963444872 3.311892734 2.182161431
H -1.912719443 1.763980044 -1.187734689

