9

O -0.432039221 -0.844772131 -1.136986132
C -1.873360265 -0.790140678 1.094473870
C -1.971607901 1.430224723 2.707801943
C -0.974417642 3.638498447 1.832748954
C -0.108424246 5.657665841 1.142362573
H 0.579953395 7.500416152 0.712991399
H -3.919874056 -1.061735839 0.703335560
H -1.366718209 -2.449124704 2.221002409
H -0.278762893 0.847447851 -1.779112253

