12

O -3.197283736 -0.547635053 -1.744649809
C -2.046015848 -1.492720385 0.463365665
C 0.425415731 -0.458339541 1.260973009
C 0.855245749 2.092467905 0.837041960
C 1.234260521 4.341065228 0.643147632
C 3.071290782 -2.291270098 -0.457254574
N 4.948870938 -3.276713895 0.098393013
H -3.188617584 1.268330166 -1.682058093
H -3.194596697 -1.113874460 2.170507623
H -1.976572948 -3.540701756 0.261326994
H 1.786834468 -1.732379402 -1.983923378
H 1.632508396 6.312566832 0.557091885

