14

O -1.110718863 -1.976454179 3.009699751
C -3.030150386 -1.573377033 1.477599968
C -2.332593968 0.343447708 -0.464860929
C 0.198464952 1.755949219 -0.497263515
C 2.474749787 0.272136511 -1.466100758
O 3.640645308 -1.294870519 0.350308018
H -1.618928239 -3.208475110 4.249332102
H 1.914320532 -0.837438217 -3.133045029
H -2.672223880 -0.629141473 -2.269185209
H -3.914490358 1.682771502 -0.377797051
H -0.043913172 3.392274163 -1.735817172
H 0.638586003 2.507581265 1.377511210
H 3.931385549 1.597611542 -2.082988642
H 2.348813600 -1.984420716 1.421393712

