24

C    -2.99067   0.92639  -0.28902
C    -2.82190  -0.52022   0.15990
N    -1.80454  -1.22890  -0.43384
C    -1.43640  -2.51865  -0.22284
C     0.99089  -0.45791   0.62498
F     1.26208  -1.39973   1.52167
C     1.53614  -0.48233  -0.81594
C     2.62954   0.60871  -0.92664
C     1.97321   1.76666  -0.82091
C     0.48740   1.37114  -0.64686
O     0.44888   0.19545  -1.49633
C     0.33780   0.69417   0.72890
F    -0.29159   1.26428   1.75581
H    -4.11202   1.07363  -0.38953
H    -2.62378   1.73793   0.31024
H    -2.60970   1.07484  -1.34230
H    -3.06201  -0.79874   1.15825
H    -1.43535  -0.81705  -1.32154
H    -0.73326  -2.93008  -0.97363
H    -1.68989  -2.99399   0.69892
H     1.74584  -1.47199  -1.24865
H     3.68489   0.41919  -0.97675
H     2.32550   2.78418  -0.75109
H    -0.29894   2.09285  -0.91540
24

C    -2.99434   0.92566  -0.29455
C    -2.79990  -0.50792   0.16495
N    -1.81292  -1.23204  -0.44057
C    -1.42731  -2.51205  -0.22160
C     0.98578  -0.46212   0.62307
F     1.26368  -1.39961   1.52255
C     1.53424  -0.48333  -0.81646
C     2.62749   0.60852  -0.92242
C     1.97015   1.76597  -0.81611
C     0.48401   1.36885  -0.64672
O     0.44847   0.19486  -1.49762
C     0.33144   0.68977   0.72744
F    -0.28985   1.26246   1.75768
H    -4.11360   1.06991  -0.38717
H    -2.62517   1.74074   0.30441
H    -2.61518   1.07240  -1.34575
H    -3.04321  -0.78899   1.16487
H    -1.45049  -0.82455  -1.33015
H    -0.74049  -2.93388  -0.97630
H    -1.67625  -2.98564   0.70467
H     1.74576  -1.47196  -1.24928
H     3.68440   0.41943  -0.97481
H     2.32448   2.78399  -0.74879
H    -0.29983   2.09219  -0.91568
24

C    -2.99801   0.92493  -0.30007
C    -2.77789  -0.49562   0.17000
N    -1.82129  -1.23518  -0.44731
C    -1.41822  -2.50545  -0.22035
C     0.98068  -0.46633   0.62115
F     1.26528  -1.39950   1.52343
C     1.53234  -0.48433  -0.81697
C     2.62543   0.60834  -0.91820
C     1.96709   1.76527  -0.81132
C     0.48062   1.36656  -0.64658
O     0.44807   0.19427  -1.49892
C     0.32507   0.68538   0.72598
F    -0.28812   1.26063   1.75956
H    -4.11519   1.06620  -0.38482
H    -2.62656   1.74355   0.29858
H    -2.62066   1.06997  -1.34920
H    -3.02442  -0.77924   1.17148
H    -1.46562  -0.83205  -1.33877
H    -0.74771  -2.93767  -0.97896
H    -1.66260  -2.97729   0.71042
H     1.74569  -1.47192  -1.24991
H     3.68392   0.41967  -0.97286
H     2.32346   2.78381  -0.74650
H    -0.30072   2.09153  -0.91597
24

C    -3.00168   0.92420  -0.30560
C    -2.75588  -0.48332   0.17504
N    -1.82966  -1.23832  -0.45405
C    -1.40913  -2.49884  -0.21911
C     0.97558  -0.47055   0.61923
F     1.26689  -1.39938   1.52431
C     1.53044  -0.48534  -0.81749
C     2.62338   0.60815  -0.91399
C     1.96403   1.76457  -0.80652
C     0.47723   1.36427  -0.64644
O     0.44766   0.19368  -1.50021
C     0.31870   0.68098   0.72453
F    -0.28638   1.25880   1.76144
H    -4.11677   1.06248  -0.38247
H    -2.62795   1.74636   0.29275
H    -2.62614   1.06753  -1.35264
H    -3.00562  -0.76949   1.17810
H    -1.48075  -0.83954  -1.34739
H    -0.75494  -2.94146  -0.98163
H    -1.64895  -2.96894   0.71617
H     1.74562  -1.47189  -1.25054
H     3.68343   0.41991  -0.97091
H     2.32244   2.78363  -0.74421
H    -0.30161   2.09088  -0.91626
24

C    -3.00535   0.92347  -0.31112
C    -2.73388  -0.47102   0.18009
N    -1.83804  -1.24145  -0.46079
C    -1.40004  -2.49224  -0.21787
C     0.97047  -0.47476   0.61732
F     1.26849  -1.39927   1.52519
C     1.52853  -0.48634  -0.81800
C     2.62133   0.60797  -0.90977
C     1.96097   1.76388  -0.80173
C     0.47384   1.36197  -0.64630
O     0.44725   0.19308  -1.50150
C     0.31233   0.67658   0.72307
F    -0.28464   1.25697   1.76332
H    -4.11836   1.05877  -0.38011
H    -2.62934   1.74917   0.28692
H    -2.63162   1.06510  -1.35609
H    -2.98683  -0.75974   1.18471
H    -1.49588  -0.84704  -1.35600
H    -0.76217  -2.94525  -0.98429
H    -1.63531  -2.96059   0.72193
H     1.74555  -1.47186  -1.25117
H     3.68294   0.42015  -0.96897
H     2.32142   2.78345  -0.74192
H    -0.30250   2.09022  -0.91655
24

C    -3.00901   0.92274  -0.31665
C    -2.71187  -0.45872   0.18514
N    -1.84641  -1.24459  -0.46752
C    -1.39095  -2.48564  -0.21662
C     0.96537  -0.47897   0.61540
F     1.27009  -1.39915   1.52607
C     1.52663  -0.48735  -0.81851
C     2.61927   0.60779  -0.90555
C     1.95792   1.76318  -0.79694
C     0.47044   1.35968  -0.64615
O     0.44685   0.19249  -1.50280
C     0.30596   0.67218   0.72161
F    -0.28290   1.25514   1.76519
H    -4.11994   1.05506  -0.37776
H    -2.63073   1.75198   0.28110
H    -2.63709   1.06266  -1.35954
H    -2.96803  -0.74999   1.19133
H    -1.51102  -0.85453  -1.36462
H    -0.76939  -2.94904  -0.98696
H    -1.62166  -2.95224   0.72768
H     1.74548  -1.47183  -1.25180
H     3.68245   0.42040  -0.96702
H     2.32039   2.78326  -0.73963
H    -0.30339   2.08956  -0.91684
24

C    -3.01268   0.92201  -0.32218
C    -2.68986  -0.44642   0.19019
N    -1.85479  -1.24773  -0.47426
C    -1.38186  -2.47904  -0.21538
C     0.96026  -0.48318   0.61348
F     1.27169  -1.39904   1.52695
C     1.52473  -0.48835  -0.81903
C     2.61722   0.60760  -0.90134
C     1.95486   1.76248  -0.79214
C     0.46705   1.35739  -0.64601
O     0.44644   0.19190  -1.50409
C     0.29959   0.66778   0.72015
F    -0.28116   1.25331   1.76707
H    -4.12153   1.05134  -0.37540
H    -2.63212   1.75479   0.27527
H    -2.64257   1.06022  -1.36298
H    -2.94924  -0.74024   1.19794
H    -1.52615  -0.86203  -1.37324
H    -0.77662  -2.95283  -0.98962
H    -1.60801  -2.94389   0.73343
H     1.74541  -1.47180  -1.25244
H     3.68197   0.42064  -0.96508
H     2.31937   2.78308  -0.73733
H    -0.30427   2.08890  -0.91713
24

C    -3.01635   0.92128  -0.32770
C    -2.66785  -0.43412   0.19524
N    -1.86316  -1.25087  -0.48100
C    -1.37277  -2.47243  -0.21414
C     0.95516  -0.48739   0.61156
F     1.27329  -1.39892   1.52783
C     1.52282  -0.48936  -0.81954
C     2.61517   0.60742  -0.89712
C     1.95180   1.76179  -0.78735
C     0.46366   1.35510  -0.64587
O     0.44604   0.19131  -1.50539
C     0.29322   0.66339   0.71870
F    -0.27942   1.25149   1.76895
H    -4.12311   1.04763  -0.37305
H    -2.63351   1.75760   0.26944
H    -2.64805   1.05779  -1.36643
H    -2.93044  -0.73049   1.20456
H    -1.54128  -0.86953  -1.38185
H    -0.78384  -2.95662  -0.99229
H    -1.59437  -2.93554   0.73919
H     1.74534  -1.47177  -1.25307
H     3.68148   0.42088  -0.96313
H     2.31835   2.78290  -0.73504
H    -0.30516   2.08824  -0.91741
24

C    -3.02002   0.92056  -0.33323
C    -2.64585  -0.42183   0.20029
N    -1.87153  -1.25400  -0.48774
C    -1.36368  -2.46583  -0.21289
C     0.95006  -0.49160   0.60965
F     1.27489  -1.39881   1.52871
C     1.52092  -0.49036  -0.82006
C     2.61311   0.60723  -0.89290
C     1.94874   1.76109  -0.78255
C     0.46027   1.35281  -0.64573
O     0.44563   0.19072  -1.50668
C     0.28685   0.65899   0.71724
F    -0.27768   1.24966   1.77083
H    -4.12470   1.04391  -0.37070
H    -2.63490   1.76041   0.26361
H    -2.65353   1.05535  -1.36988
H    -2.91165  -0.72074   1.21117
H    -1.55641  -0.87702  -1.39047
H    -0.79107  -2.96041  -0.99495
H    -1.58072  -2.92719   0.74494
H     1.74527  -1.47174  -1.25370
H     3.68099   0.42112  -0.96119
H     2.31733   2.78272  -0.73275
H    -0.30605   2.08759  -0.91770
24

C    -3.02369   0.91983  -0.33875
C    -2.62384  -0.40953   0.20534
N    -1.87991  -1.25714  -0.49447
C    -1.35459  -2.45923  -0.21165
C     0.94495  -0.49582   0.60773
F     1.27650  -1.39869   1.52959
C     1.51902  -0.49137  -0.82057
C     2.61106   0.60705  -0.88868
C     1.94568   1.76039  -0.77776
C     0.45688   1.35052  -0.64558
O     0.44523   0.19012  -1.50797
C     0.28048   0.65459   0.71578
F    -0.27594   1.24783   1.77270
H    -4.12628   1.04020  -0.36834
H    -2.63629   1.76322   0.25779
H    -2.65901   1.05292  -1.37333
H    -2.89285  -0.71099   1.21779
H    -1.57155  -0.88452  -1.39909
H    -0.79830  -2.96420  -0.99762
H    -1.56707  -2.91885   0.75069
H     1.74520  -1.47171  -1.25433
H     3.68051   0.42136  -0.95924
H     2.31631   2.78253  -0.73046
H    -0.30694   2.08693  -0.91799
24

C    -3.02736   0.91910  -0.34428
C    -2.60183  -0.39723   0.21039
N    -1.88828  -1.26028  -0.50121
C    -1.34550  -2.45263  -0.21041
C     0.93985  -0.50003   0.60581
F     1.27810  -1.39858   1.53047
C     1.51711  -0.49237  -0.82108
C     2.60901   0.60687  -0.88447
C     1.94263   1.75970  -0.77296
C     0.45349   1.34823  -0.64544
O     0.44482   0.18953  -1.50927
C     0.27412   0.65019   0.71432
F    -0.27420   1.24600   1.77458
H    -4.12786   1.03648  -0.36599
H    -2.63768   1.76603   0.25196
H    -2.66449   1.05048  -1.37677
H    -2.87405  -0.70124   1.22440
H    -1.58668  -0.89201  -1.40770
H    -0.80552  -2.96799  -1.00028
H    -1.55343  -2.91050   0.75645
H     1.74513  -1.47168  -1.25496
H     3.68002   0.42160  -0.95730
H     2.31529   2.78235  -0.72816
H    -0.30783   2.08627  -0.91828
24

C    -3.03103   0.91837  -0.34980
C    -2.57983  -0.38493   0.21543
N    -1.89665  -1.26342  -0.50795
C    -1.33641  -2.44602  -0.20916
C     0.93475  -0.50424   0.60389
F     1.27970  -1.39846   1.53135
C     1.51521  -0.49337  -0.82160
C     2.60696   0.60668  -0.88025
C     1.93957   1.75900  -0.76817
C     0.45009   1.34594  -0.64530
O     0.44441   0.18894  -1.51056
C     0.26775   0.64579   0.71287
F    -0.27246   1.24417   1.77646
H    -4.12945   1.03277  -0.36364
H    -2.63907   1.76884   0.24613
H    -2.66996   1.04804  -1.38022
H    -2.85526  -0.69149   1.23102
H    -1.60181  -0.89951  -1.41632
H    -0.81275  -2.97178  -1.00295
H    -1.53978  -2.90215   0.76220
H     1.74506  -1.47165  -1.25559
H     3.67953   0.42184  -0.95535
H     2.31427   2.78217  -0.72587
H    -0.30872   2.08561  -0.91857
24

C    -3.03470   0.91764  -0.35533
C    -2.55782  -0.37263   0.22048
N    -1.90503  -1.26656  -0.51469
C    -1.32731  -2.43942  -0.20792
C     0.92964  -0.50845   0.60198
F     1.28130  -1.39835   1.53222
C     1.51331  -0.49438  -0.82211
C     2.60490   0.60650  -0.87603
C     1.93651   1.75830  -0.76338
C     0.44670   1.34364  -0.64516
O     0.44401   0.18835  -1.51185
C     0.26138   0.64140   0.71141
F    -0.27072   1.24234   1.77834
H    -4.13103   1.02905  -0.36128
H    -2.64046   1.77164   0.24030
H    -2.67544   1.04561  -1.38367
H    -2.83646  -0.68174   1.23763
H    -1.61694  -0.90700  -1.42494
H    -0.81997  -2.97557  -1.00562
H    -1.52613  -2.89380   0.76795
H     1.74499  -1.47162  -1.25622
H     3.67905   0.42208  -0.95340
H     2.31325   2.78198  -0.72358
H    -0.30961   2.08496  -0.91886
24

C    -3.03836   0.91691  -0.36085
C    -2.53581  -0.36033   0.22553
N    -1.91340  -1.26969  -0.52142
C    -1.31822  -2.43282  -0.20668
C     0.92454  -0.51266   0.60006
F     1.28290  -1.39823   1.53310
C     1.51141  -0.49538  -0.82263
C     2.60285   0.60632  -0.87182
C     1.93345   1.75760  -0.75858
C     0.44331   1.34135  -0.64501
O     0.44360   0.18775  -1.51315
C     0.25501   0.63700   0.70995
F    -0.26898   1.24051   1.78021
H    -4.13262   1.02534  -0.35893
H    -2.64185   1.77445   0.23447
H    -2.68092   1.04317  -1.38711
H    -2.81767  -0.67199   1.24425
H    -1.63208  -0.91450  -1.43355
H    -0.82720  -2.97936  -1.00828
H    -1.51249  -2.88545   0.77370
H     1.74492  -1.47159  -1.25685
H     3.67856   0.42232  -0.95146
H     2.31223   2.78180  -0.72129
H    -0.31049   2.08430  -0.91914
24

C    -3.04203   0.91618  -0.36638
C    -2.51380  -0.34803   0.23058
N    -1.92178  -1.27283  -0.52816
C    -1.30913  -2.42622  -0.20543
C     0.91944  -0.51687   0.59814
F     1.28450  -1.39812   1.53398
C     1.50950  -0.49639  -0.82314
C     2.60080   0.60613  -0.86760
C     1.93039   1.75691  -0.75379
C     0.43992   1.33906  -0.64487
O     0.44320   0.18716  -1.51444
C     0.24864   0.63260   0.70849
F    -0.26724   1.23869   1.78209
H    -4.13420   1.02163  -0.35658
H    -2.64324   1.77726   0.22865
H    -2.68640   1.04074  -1.39056
H    -2.79887  -0.66224   1.25086
H    -1.64721  -0.92200  -1.44217
H    -0.83443  -2.98315  -1.01095
H    -1.49884  -2.87710   0.77946
H     1.74484  -1.47156  -1.25749
H     3.67807   0.42256  -0.94951
H     2.31121   2.78162  -0.71899
H    -0.31138   2.08364  -0.91943
24

C    -3.04570   0.91545  -0.37190
C    -2.49180  -0.33573   0.23563
N    -1.93015  -1.27597  -0.53490
C    -1.30004  -2.41961  -0.20419
C     0.91433  -0.52109   0.59622
F     1.28611  -1.39800   1.53486
C     1.50760  -0.49739  -0.82365
C     2.59874   0.60595  -0.86338
C     1.92734   1.75621  -0.74899
C     0.43653   1.33677  -0.64473
O     0.44279   0.18657  -1.51574
C     0.24227   0.62820   0.70703
F    -0.26550   1.23686   1.78397
H    -4.13579   1.01791  -0.35422
H    -2.64463   1.78007   0.22282
H    -2.69188   1.03830  -1.39401
H    -2.78008  -0.65249   1.25748
H    -1.66234  -0.92949  -1.45079
H    -0.84165  -2.98694  -1.01361
H    -1.48519  -2.86875   0.78521
H     1.74477  -1.47153  -1.25812
H     3.67759   0.42280  -0.94757
H     2.31019   2.78144  -0.71670
H    -0.31227   2.08298  -0.91972
24

C    -3.04937   0.91472  -0.37743
C    -2.46979  -0.32343   0.24068
N    -1.93852  -1.27911  -0.54164
C    -1.29095  -2.41301  -0.20295
C     0.90923  -0.52530   0.59431
F     1.28771  -1.39789   1.53574
C     1.50570  -0.49840  -0.82417
C     2.59669   0.60576  -0.85917
C     1.92428   1.75551  -0.74420
C     0.43313   1.33448  -0.64459
O     0.44239   0.18598  -1.51703
C     0.23590   0.62380   0.70558
F    -0.26376   1.23503   1.78585
H    -4.13737   1.01420  -0.35187
H    -2.64602   1.78288   0.21699
H    -2.69735   1.03586  -1.39745
H    -2.76128  -0.64274   1.26409
H    -1.67747  -0.93699  -1.45940
H    -0.84888  -2.99073  -1.01628
H    -1.47155  -2.86040   0.79096
H     1.74470  -1.47150  -1.25875
H     3.67710   0.42304  -0.94562
H     2.30917   2.78125  -0.71441
H    -0.31316   2.08232  -0.92001
24

C    -3.05304   0.91399  -0.38295
C    -2.44778  -0.31113   0.24573
N    -1.94690  -1.28225  -0.54838
C    -1.28186  -2.40641  -0.20170
C     0.90413  -0.52951   0.59239
F     1.28931  -1.39777   1.53662
C     1.50379  -0.49940  -0.82468
C     2.59464   0.60558  -0.85495
C     1.92122   1.75482  -0.73940
C     0.42974   1.33219  -0.64444
O     0.44198   0.18539  -1.51832
C     0.22953   0.61941   0.70412
F    -0.26202   1.23320   1.78772
H    -4.13896   1.01048  -0.34952
H    -2.64741   1.78569   0.21116
H    -2.70283   1.03343  -1.40090
H    -2.74249  -0.63299   1.27071
H    -1.69261  -0.94448  -1.46802
H    -0.85610  -2.99453  -1.01894
H    -1.45790  -2.85205   0.79672
H     1.74463  -1.47147  -1.25938
H     3.67661   0.42328  -0.94368
H     2.30815   2.78107  -0.71212
H    -0.31405   2.08167  -0.92030
24

C    -3.05671   0.91326  -0.38848
C    -2.42577  -0.29883   0.25078
N    -1.95527  -1.28538  -0.55511
C    -1.27277  -2.39981  -0.20046
C     0.89902  -0.53372   0.59047
F     1.29091  -1.39766   1.53750
C     1.50189  -0.50041  -0.82520
C     2.59258   0.60540  -0.85073
C     1.91816   1.75412  -0.73461
C     0.42635   1.32990  -0.64430
O     0.44158   0.18479  -1.51962
C     0.22316   0.61501   0.70266
F    -0.26028   1.23137   1.78960
H    -4.14054   1.00677  -0.34716
H    -2.64880   1.78850   0.20534
H    -2.70831   1.03099  -1.40435
H    -2.72369  -0.62324   1.27732
H    -1.70774  -0.95198  -1.47664
H    -0.86333  -2.99832  -1.02161
H    -1.44425  -2.84370   0.80247
H     1.74456  -1.47144  -1.26001
H     3.67613   0.42352  -0.94173
H     2.30713   2.78089  -0.70982
H    -0.31494   2.08101  -0.92059
24

C    -3.06038   0.91253  -0.39400
C    -2.40377  -0.28653   0.25583
N    -1.96364  -1.28852  -0.56185
C    -1.26368  -2.39320  -0.19922
C     0.89392  -0.53793   0.58856
F     1.29251  -1.39754   1.53838
C     1.49999  -0.50141  -0.82571
C     2.59053   0.60521  -0.84652
C     1.91510   1.75342  -0.72982
C     0.42296   1.32761  -0.64416
O     0.44117   0.18420  -1.52091
C     0.21680   0.61061   0.70120
F    -0.25854   1.22954   1.79148
H    -4.14213   1.00305  -0.34481
H    -2.65019   1.79131   0.19951
H    -2.71379   1.02856  -1.40779
H    -2.70490  -0.61349   1.28394
H    -1.72287  -0.95947  -1.48525
H    -0.87056  -3.00211  -1.02427
H    -1.43061  -2.83535   0.80822
H     1.74449  -1.47141  -1.26064
H     3.67564   0.42376  -0.93979
H     2.30611   2.78071  -0.70753
H    -0.31582   2.08035  -0.92087
24

C    -3.06405   0.91180  -0.39953
C    -2.38176  -0.27424   0.26087
N    -1.97202  -1.29166  -0.56859
C    -1.25459  -2.38660  -0.19797
C     0.88881  -0.54215   0.58664
F     1.29411  -1.39743   1.53926
C     1.49808  -0.50241  -0.82622
C     2.58848   0.60503  -0.84230
C     1.91205   1.75273  -0.72502
C     0.41957   1.32532  -0.64402
O     0.44076   0.18361  -1.52221
C     0.21043   0.60621   0.69975
F    -0.25680   1.22772   1.79335
H    -4.14371   0.99934  -0.34246
H    -2.65158   1.79412   0.19368
H    -2.71927   1.02612  -1.41124
H    -2.68610  -0.60374   1.29055
H    -1.73800  -0.96697  -1.49387
H    -0.87778  -3.00590  -1.02694
H    -1.41696  -2.82700   0.81397
H     1.74442  -1.47138  -1.26127
H     3.67515   0.42400  -0.93784
H     2.30509   2.78052  -0.70524
H    -0.31671   2.07969  -0.92116
24

C    -3.06038   0.91253  -0.39400
C    -2.40377  -0.28653   0.25583
N    -1.96364  -1.28852  -0.56185
C    -1.26368  -2.39320  -0.19922
C     0.89392  -0.53793   0.58856
F     1.29251  -1.39754   1.53838
C     1.49999  -0.50141  -0.82571
C     2.59053   0.60521  -0.84652
C     1.91510   1.75342  -0.72982
C     0.42296   1.32761  -0.64416
O     0.44117   0.18420  -1.52091
C     0.21680   0.61061   0.70120
F    -0.25854   1.22954   1.79148
H    -4.14213   1.00305  -0.34481
H    -2.65019   1.79131   0.19951
H    -2.71379   1.02856  -1.40779
H    -2.70490  -0.61349   1.28394
H    -1.72287  -0.95947  -1.48525
H    -0.87056  -3.00211  -1.02427
H    -1.43061  -2.83535   0.80822
H     1.74449  -1.47141  -1.26064
H     3.67564   0.42376  -0.93979
H     2.30611   2.78071  -0.70753
H    -0.31582   2.08035  -0.92087
24

C    -3.05671   0.91326  -0.38848
C    -2.42577  -0.29883   0.25078
N    -1.95527  -1.28538  -0.55511
C    -1.27277  -2.39981  -0.20046
C     0.89902  -0.53372   0.59047
F     1.29091  -1.39766   1.53750
C     1.50189  -0.50041  -0.82520
C     2.59258   0.60540  -0.85073
C     1.91816   1.75412  -0.73461
C     0.42635   1.32990  -0.64430
O     0.44158   0.18479  -1.51962
C     0.22316   0.61501   0.70266
F    -0.26028   1.23137   1.78960
H    -4.14054   1.00677  -0.34716
H    -2.64880   1.78850   0.20534
H    -2.70831   1.03099  -1.40435
H    -2.72369  -0.62324   1.27732
H    -1.70774  -0.95198  -1.47664
H    -0.86333  -2.99832  -1.02161
H    -1.44425  -2.84370   0.80247
H     1.74456  -1.47144  -1.26001
H     3.67613   0.42352  -0.94173
H     2.30713   2.78089  -0.70982
H    -0.31494   2.08101  -0.92059
24

C    -3.05304   0.91399  -0.38295
C    -2.44778  -0.31113   0.24573
N    -1.94690  -1.28225  -0.54838
C    -1.28186  -2.40641  -0.20170
C     0.90413  -0.52951   0.59239
F     1.28931  -1.39777   1.53662
C     1.50379  -0.49940  -0.82468
C     2.59464   0.60558  -0.85495
C     1.92122   1.75482  -0.73940
C     0.42974   1.33219  -0.64444
O     0.44198   0.18539  -1.51832
C     0.22953   0.61941   0.70412
F    -0.26202   1.23320   1.78772
H    -4.13896   1.01048  -0.34952
H    -2.64741   1.78569   0.21116
H    -2.70283   1.03343  -1.40090
H    -2.74249  -0.63299   1.27071
H    -1.69261  -0.94448  -1.46802
H    -0.85610  -2.99453  -1.01894
H    -1.45790  -2.85205   0.79672
H     1.74463  -1.47147  -1.25938
H     3.67661   0.42328  -0.94368
H     2.30815   2.78107  -0.71212
H    -0.31405   2.08167  -0.92030
24

C    -3.04937   0.91472  -0.37743
C    -2.46979  -0.32343   0.24068
N    -1.93852  -1.27911  -0.54164
C    -1.29095  -2.41301  -0.20295
C     0.90923  -0.52530   0.59431
F     1.28771  -1.39789   1.53574
C     1.50570  -0.49840  -0.82417
C     2.59669   0.60576  -0.85917
C     1.92428   1.75551  -0.74420
C     0.43313   1.33448  -0.64459
O     0.44239   0.18598  -1.51703
C     0.23590   0.62380   0.70558
F    -0.26376   1.23503   1.78585
H    -4.13737   1.01420  -0.35187
H    -2.64602   1.78288   0.21699
H    -2.69735   1.03586  -1.39745
H    -2.76128  -0.64274   1.26409
H    -1.67747  -0.93699  -1.45940
H    -0.84888  -2.99073  -1.01628
H    -1.47155  -2.86040   0.79096
H     1.74470  -1.47150  -1.25875
H     3.67710   0.42304  -0.94562
H     2.30917   2.78125  -0.71441
H    -0.31316   2.08232  -0.92001
24

C    -3.04570   0.91545  -0.37190
C    -2.49180  -0.33573   0.23563
N    -1.93015  -1.27597  -0.53490
C    -1.30004  -2.41961  -0.20419
C     0.91433  -0.52109   0.59622
F     1.28611  -1.39800   1.53486
C     1.50760  -0.49739  -0.82365
C     2.59874   0.60595  -0.86338
C     1.92734   1.75621  -0.74899
C     0.43653   1.33677  -0.64473
O     0.44279   0.18657  -1.51574
C     0.24227   0.62820   0.70703
F    -0.26550   1.23686   1.78397
H    -4.13579   1.01791  -0.35422
H    -2.64463   1.78007   0.22282
H    -2.69188   1.03830  -1.39401
H    -2.78008  -0.65249   1.25748
H    -1.66234  -0.92949  -1.45079
H    -0.84165  -2.98694  -1.01361
H    -1.48519  -2.86875   0.78521
H     1.74477  -1.47153  -1.25812
H     3.67759   0.42280  -0.94757
H     2.31019   2.78144  -0.71670
H    -0.31227   2.08298  -0.91972
24

C    -3.04203   0.91618  -0.36638
C    -2.51380  -0.34803   0.23058
N    -1.92178  -1.27283  -0.52816
C    -1.30913  -2.42622  -0.20543
C     0.91944  -0.51687   0.59814
F     1.28450  -1.39812   1.53398
C     1.50950  -0.49639  -0.82314
C     2.60080   0.60613  -0.86760
C     1.93039   1.75691  -0.75379
C     0.43992   1.33906  -0.64487
O     0.44320   0.18716  -1.51444
C     0.24864   0.63260   0.70849
F    -0.26724   1.23869   1.78209
H    -4.13420   1.02163  -0.35658
H    -2.64324   1.77726   0.22865
H    -2.68640   1.04074  -1.39056
H    -2.79887  -0.66224   1.25086
H    -1.64721  -0.92200  -1.44217
H    -0.83443  -2.98315  -1.01095
H    -1.49884  -2.87710   0.77946
H     1.74484  -1.47156  -1.25749
H     3.67807   0.42256  -0.94951
H     2.31121   2.78162  -0.71899
H    -0.31138   2.08364  -0.91943
24

C    -3.03836   0.91691  -0.36085
C    -2.53581  -0.36033   0.22553
N    -1.91340  -1.26969  -0.52142
C    -1.31822  -2.43282  -0.20668
C     0.92454  -0.51266   0.60006
F     1.28290  -1.39823   1.53310
C     1.51141  -0.49538  -0.82263
C     2.60285   0.60632  -0.87182
C     1.93345   1.75760  -0.75858
C     0.44331   1.34135  -0.64501
O     0.44360   0.18775  -1.51315
C     0.25501   0.63700   0.70995
F    -0.26898   1.24051   1.78021
H    -4.13262   1.02534  -0.35893
H    -2.64185   1.77445   0.23447
H    -2.68092   1.04317  -1.38711
H    -2.81767  -0.67199   1.24425
H    -1.63208  -0.91450  -1.43355
H    -0.82720  -2.97936  -1.00828
H    -1.51249  -2.88545   0.77370
H     1.74492  -1.47159  -1.25685
H     3.67856   0.42232  -0.95146
H     2.31223   2.78180  -0.72129
H    -0.31049   2.08430  -0.91914
24

C    -3.03470   0.91764  -0.35533
C    -2.55782  -0.37263   0.22048
N    -1.90503  -1.26656  -0.51469
C    -1.32731  -2.43942  -0.20792
C     0.92964  -0.50845   0.60198
F     1.28130  -1.39835   1.53222
C     1.51331  -0.49438  -0.82211
C     2.60490   0.60650  -0.87603
C     1.93651   1.75830  -0.76338
C     0.44670   1.34364  -0.64516
O     0.44401   0.18835  -1.51185
C     0.26138   0.64140   0.71141
F    -0.27072   1.24234   1.77834
H    -4.13103   1.02905  -0.36128
H    -2.64046   1.77164   0.24030
H    -2.67544   1.04561  -1.38367
H    -2.83646  -0.68174   1.23763
H    -1.61694  -0.90700  -1.42494
H    -0.81997  -2.97557  -1.00562
H    -1.52613  -2.89380   0.76795
H     1.74499  -1.47162  -1.25622
H     3.67905   0.42208  -0.95340
H     2.31325   2.78198  -0.72358
H    -0.30961   2.08496  -0.91886
24

C    -3.03103   0.91837  -0.34980
C    -2.57983  -0.38493   0.21543
N    -1.89665  -1.26342  -0.50795
C    -1.33641  -2.44602  -0.20916
C     0.93475  -0.50424   0.60389
F     1.27970  -1.39846   1.53135
C     1.51521  -0.49337  -0.82160
C     2.60696   0.60668  -0.88025
C     1.93957   1.75900  -0.76817
C     0.45009   1.34594  -0.64530
O     0.44441   0.18894  -1.51056
C     0.26775   0.64579   0.71287
F    -0.27246   1.24417   1.77646
H    -4.12945   1.03277  -0.36364
H    -2.63907   1.76884   0.24613
H    -2.66996   1.04804  -1.38022
H    -2.85526  -0.69149   1.23102
H    -1.60181  -0.89951  -1.41632
H    -0.81275  -2.97178  -1.00295
H    -1.53978  -2.90215   0.76220
H     1.74506  -1.47165  -1.25559
H     3.67953   0.42184  -0.95535
H     2.31427   2.78217  -0.72587
H    -0.30872   2.08561  -0.91857
24

C    -3.02736   0.91910  -0.34428
C    -2.60183  -0.39723   0.21039
N    -1.88828  -1.26028  -0.50121
C    -1.34550  -2.45263  -0.21041
C     0.93985  -0.50003   0.60581
F     1.27810  -1.39858   1.53047
C     1.51711  -0.49237  -0.82108
C     2.60901   0.60687  -0.88447
C     1.94263   1.75970  -0.77296
C     0.45349   1.34823  -0.64544
O     0.44482   0.18953  -1.50927
C     0.27412   0.65019   0.71432
F    -0.27420   1.24600   1.77458
H    -4.12786   1.03648  -0.36599
H    -2.63768   1.76603   0.25196
H    -2.66449   1.05048  -1.37677
H    -2.87405  -0.70124   1.22440
H    -1.58668  -0.89201  -1.40770
H    -0.80552  -2.96799  -1.00028
H    -1.55343  -2.91050   0.75645
H     1.74513  -1.47168  -1.25496
H     3.68002   0.42160  -0.95730
H     2.31529   2.78235  -0.72816
H    -0.30783   2.08627  -0.91828
24

C    -3.02369   0.91983  -0.33875
C    -2.62384  -0.40953   0.20534
N    -1.87991  -1.25714  -0.49447
C    -1.35459  -2.45923  -0.21165
C     0.94495  -0.49582   0.60773
F     1.27650  -1.39869   1.52959
C     1.51902  -0.49137  -0.82057
C     2.61106   0.60705  -0.88868
C     1.94568   1.76039  -0.77776
C     0.45688   1.35052  -0.64558
O     0.44523   0.19012  -1.50797
C     0.28048   0.65459   0.71578
F    -0.27594   1.24783   1.77270
H    -4.12628   1.04020  -0.36834
H    -2.63629   1.76322   0.25779
H    -2.65901   1.05292  -1.37333
H    -2.89285  -0.71099   1.21779
H    -1.57155  -0.88452  -1.39909
H    -0.79830  -2.96420  -0.99762
H    -1.56707  -2.91885   0.75069
H     1.74520  -1.47171  -1.25433
H     3.68051   0.42136  -0.95924
H     2.31631   2.78253  -0.73046
H    -0.30694   2.08693  -0.91799
24

C    -3.02002   0.92056  -0.33323
C    -2.64585  -0.42183   0.20029
N    -1.87153  -1.25400  -0.48774
C    -1.36368  -2.46583  -0.21289
C     0.95006  -0.49160   0.60965
F     1.27489  -1.39881   1.52871
C     1.52092  -0.49036  -0.82006
C     2.61311   0.60723  -0.89290
C     1.94874   1.76109  -0.78255
C     0.46027   1.35281  -0.64573
O     0.44563   0.19072  -1.50668
C     0.28685   0.65899   0.71724
F    -0.27768   1.24966   1.77083
H    -4.12470   1.04391  -0.37070
H    -2.63490   1.76041   0.26361
H    -2.65353   1.05535  -1.36988
H    -2.91165  -0.72074   1.21117
H    -1.55641  -0.87702  -1.39047
H    -0.79107  -2.96041  -0.99495
H    -1.58072  -2.92719   0.74494
H     1.74527  -1.47174  -1.25370
H     3.68099   0.42112  -0.96119
H     2.31733   2.78272  -0.73275
H    -0.30605   2.08759  -0.91770
24

C    -3.01635   0.92128  -0.32770
C    -2.66785  -0.43412   0.19524
N    -1.86316  -1.25087  -0.48100
C    -1.37277  -2.47243  -0.21414
C     0.95516  -0.48739   0.61156
F     1.27329  -1.39892   1.52783
C     1.52282  -0.48936  -0.81954
C     2.61517   0.60742  -0.89712
C     1.95180   1.76179  -0.78735
C     0.46366   1.35510  -0.64587
O     0.44604   0.19131  -1.50539
C     0.29322   0.66339   0.71870
F    -0.27942   1.25149   1.76895
H    -4.12311   1.04763  -0.37305
H    -2.63351   1.75760   0.26944
H    -2.64805   1.05779  -1.36643
H    -2.93044  -0.73049   1.20456
H    -1.54128  -0.86953  -1.38185
H    -0.78384  -2.95662  -0.99229
H    -1.59437  -2.93554   0.73919
H     1.74534  -1.47177  -1.25307
H     3.68148   0.42088  -0.96313
H     2.31835   2.78290  -0.73504
H    -0.30516   2.08824  -0.91741
24

C    -3.01268   0.92201  -0.32218
C    -2.68986  -0.44642   0.19019
N    -1.85479  -1.24773  -0.47426
C    -1.38186  -2.47904  -0.21538
C     0.96026  -0.48318   0.61348
F     1.27169  -1.39904   1.52695
C     1.52473  -0.48835  -0.81903
C     2.61722   0.60760  -0.90134
C     1.95486   1.76248  -0.79214
C     0.46705   1.35739  -0.64601
O     0.44644   0.19190  -1.50409
C     0.29959   0.66778   0.72015
F    -0.28116   1.25331   1.76707
H    -4.12153   1.05134  -0.37540
H    -2.63212   1.75479   0.27527
H    -2.64257   1.06022  -1.36298
H    -2.94924  -0.74024   1.19794
H    -1.52615  -0.86203  -1.37324
H    -0.77662  -2.95283  -0.98962
H    -1.60801  -2.94389   0.73343
H     1.74541  -1.47180  -1.25244
H     3.68197   0.42064  -0.96508
H     2.31937   2.78308  -0.73733
H    -0.30427   2.08890  -0.91713
24

C    -3.00901   0.92274  -0.31665
C    -2.71187  -0.45872   0.18514
N    -1.84641  -1.24459  -0.46752
C    -1.39095  -2.48564  -0.21662
C     0.96537  -0.47897   0.61540
F     1.27009  -1.39915   1.52607
C     1.52663  -0.48735  -0.81851
C     2.61927   0.60779  -0.90555
C     1.95792   1.76318  -0.79694
C     0.47044   1.35968  -0.64615
O     0.44685   0.19249  -1.50280
C     0.30596   0.67218   0.72161
F    -0.28290   1.25514   1.76519
H    -4.11994   1.05506  -0.37776
H    -2.63073   1.75198   0.28110
H    -2.63709   1.06266  -1.35954
H    -2.96803  -0.74999   1.19133
H    -1.51102  -0.85453  -1.36462
H    -0.76939  -2.94904  -0.98696
H    -1.62166  -2.95224   0.72768
H     1.74548  -1.47183  -1.25180
H     3.68245   0.42040  -0.96702
H     2.32039   2.78326  -0.73963
H    -0.30339   2.08956  -0.91684
24

C    -3.00535   0.92347  -0.31112
C    -2.73388  -0.47102   0.18009
N    -1.83804  -1.24145  -0.46079
C    -1.40004  -2.49224  -0.21787
C     0.97047  -0.47476   0.61732
F     1.26849  -1.39927   1.52519
C     1.52853  -0.48634  -0.81800
C     2.62133   0.60797  -0.90977
C     1.96097   1.76388  -0.80173
C     0.47384   1.36197  -0.64630
O     0.44725   0.19308  -1.50150
C     0.31233   0.67658   0.72307
F    -0.28464   1.25697   1.76332
H    -4.11836   1.05877  -0.38011
H    -2.62934   1.74917   0.28692
H    -2.63162   1.06510  -1.35609
H    -2.98683  -0.75974   1.18471
H    -1.49588  -0.84704  -1.35600
H    -0.76217  -2.94525  -0.98429
H    -1.63531  -2.96059   0.72193
H     1.74555  -1.47186  -1.25117
H     3.68294   0.42015  -0.96897
H     2.32142   2.78345  -0.74192
H    -0.30250   2.09022  -0.91655
24

C    -3.00168   0.92420  -0.30560
C    -2.75588  -0.48332   0.17504
N    -1.82966  -1.23832  -0.45405
C    -1.40913  -2.49884  -0.21911
C     0.97558  -0.47055   0.61923
F     1.26689  -1.39938   1.52431
C     1.53044  -0.48534  -0.81749
C     2.62338   0.60815  -0.91399
C     1.96403   1.76457  -0.80652
C     0.47723   1.36427  -0.64644
O     0.44766   0.19368  -1.50021
C     0.31870   0.68098   0.72453
F    -0.28638   1.25880   1.76144
H    -4.11677   1.06248  -0.38247
H    -2.62795   1.74636   0.29275
H    -2.62614   1.06753  -1.35264
H    -3.00562  -0.76949   1.17810
H    -1.48075  -0.83954  -1.34739
H    -0.75494  -2.94146  -0.98163
H    -1.64895  -2.96894   0.71617
H     1.74562  -1.47189  -1.25054
H     3.68343   0.41991  -0.97091
H     2.32244   2.78363  -0.74421
H    -0.30161   2.09088  -0.91626
24

C    -2.99801   0.92493  -0.30007
C    -2.77789  -0.49562   0.17000
N    -1.82129  -1.23518  -0.44731
C    -1.41822  -2.50545  -0.22035
C     0.98068  -0.46633   0.62115
F     1.26528  -1.39950   1.52343
C     1.53234  -0.48433  -0.81697
C     2.62543   0.60834  -0.91820
C     1.96709   1.76527  -0.81132
C     0.48062   1.36656  -0.64658
O     0.44807   0.19427  -1.49892
C     0.32507   0.68538   0.72598
F    -0.28812   1.26063   1.75956
H    -4.11519   1.06620  -0.38482
H    -2.62656   1.74355   0.29858
H    -2.62066   1.06997  -1.34920
H    -3.02442  -0.77924   1.17148
H    -1.46562  -0.83205  -1.33877
H    -0.74771  -2.93767  -0.97896
H    -1.66260  -2.97729   0.71042
H     1.74569  -1.47192  -1.24991
H     3.68392   0.41967  -0.97286
H     2.32346   2.78381  -0.74650
H    -0.30072   2.09153  -0.91597
24

C    -2.99434   0.92566  -0.29455
C    -2.79990  -0.50792   0.16495
N    -1.81292  -1.23204  -0.44057
C    -1.42731  -2.51205  -0.22160
C     0.98578  -0.46212   0.62307
F     1.26368  -1.39961   1.52255
C     1.53424  -0.48333  -0.81646
C     2.62749   0.60852  -0.92242
C     1.97015   1.76597  -0.81611
C     0.48401   1.36885  -0.64672
O     0.44847   0.19486  -1.49762
C     0.33144   0.68977   0.72744
F    -0.28985   1.26246   1.75768
H    -4.11360   1.06991  -0.38717
H    -2.62517   1.74074   0.30441
H    -2.61518   1.07240  -1.34575
H    -3.04321  -0.78899   1.16487
H    -1.45049  -0.82455  -1.33015
H    -0.74049  -2.93388  -0.97630
H    -1.67625  -2.98564   0.70467
H     1.74576  -1.47196  -1.24928
H     3.68440   0.41943  -0.97481
H     2.32448   2.78399  -0.74879
H    -0.29983   2.09219  -0.91568
