13

O 2.038036555 1.054377397 -2.216481390
C 0.366718286 0.267733903 -0.457154985
C -1.762723112 -1.594106554 -0.997952197
O -3.359722988 -0.190997530 0.702133694
C -1.705215174 1.968810313 0.582305972
C 2.865866138 -1.196456040 2.192762058
O 4.825954779 -1.011250143 1.174721392
H 3.733831048 0.515654424 -1.702146184
H -1.561737454 -3.575760824 -0.429307679
H -2.443340025 -1.505310459 -2.953521803
H -2.361556420 3.371701810 -0.795337349
H -1.468274378 2.880059493 2.425864311
H 0.832160817 -0.984455810 2.474114140

