12

C -4.323589873 -1.224987181 0.211159074
C -0.582422738 0.795683962 -1.056855716
C 1.508314462 2.057233092 -0.613091235
N 3.792163511 0.774404796 0.019479013
C 3.869903518 -1.447828580 1.082538587
N -2.478148516 -0.338090126 -1.620184472
H -3.846032686 -0.688575438 2.145275111
H -4.419762098 -3.277055388 0.072722444
H -6.168087160 -0.466159946 -0.301459505
H 1.536174316 4.097944952 -0.644593442
H 5.361522287 1.748347342 -0.506332084
H 5.890698533 -1.949258620 1.227212126

