11

C -2.574815491 -1.380365074 -0.337194472
C 0.515221847 1.204173284 1.443986351
C 2.649822179 -0.047613407 0.570044370
C 4.556371836 -1.158888700 -0.005988826
C -0.302368199 3.453601293 0.281758997
N -1.022738166 5.363530291 -0.490063602
H -2.196675756 -3.374486775 -0.009958932
H -4.535066837 -0.849327882 -0.011374828
H -1.909860760 -0.762235432 -2.170028747
H -1.556309272 -0.428215700 1.428870942
H 6.252450657 -2.116714187 -0.510184782

