14

O 3.789465341 0.649536664 -1.598569784
C 4.499829511 1.357748832 0.614327324
C 1.872205510 -0.855683957 0.671452403
C -0.453875951 -0.922189467 -0.937395091
C -2.932223663 -1.241841384 0.418798647
C -2.288701545 1.222320022 -0.812246373
H 3.938042809 3.398937507 0.935109222
H 2.811906048 -2.642348123 0.979713599
H 1.400674717 0.113815861 2.448638912
H -0.248003008 -1.873150827 -2.735038263
H -4.339835792 -2.438065233 -0.455377528
H -2.904223478 -1.327831387 2.464208573
H -3.258463355 1.740850647 -2.533925219
H -1.814157980 2.803440680 0.398256682

