19

C 4.652487804 0.609842815 -1.559180371
C 1.997346859 -0.507146367 -1.560876684
C 0.886775413 -0.591886770 1.060807983
C -0.469477455 1.640105606 2.063289929
C -4.742419568 1.269436148 -0.112474137
C -3.815494618 -1.254455703 -0.704817238
C -1.923519587 -0.842156391 1.478189185
H 5.440577732 0.670024545 -3.463428077
H 5.929346758 -0.508588927 -0.383774520
H 4.638643841 2.534525547 -0.814364037
H 0.774798785 0.624618433 -2.783229454
H 2.034416104 -2.414398265 -2.360734786
H 1.988708505 -1.668923230 2.416197568
H -0.698602892 3.243697299 0.827335628
H -0.329357910 2.094689146 4.051049414
H -5.986029282 1.082171659 1.556635326
H -4.948265299 -2.918454609 -0.249118891
H -2.898919981 -1.469798725 -2.534923334
H -2.483379013 -1.832654941 3.174420431

