19

C 4.631342373 0.681774068 -1.486703062
C 2.038936537 -0.569790750 -1.549450700
C 0.813883008 -0.612722040 1.027201529
C -0.602455158 1.661395506 1.868531693
C -4.302694283 1.319595809 0.214674985
C -3.865139726 -1.280137553 -0.755150830
C -1.944791950 -1.134441483 1.301177159
H 5.490532434 0.717535000 -3.360353173
H 5.915319812 -0.329535260 -0.225073392
H 4.496908712 2.629303325 -0.815679287
H 0.811644589 0.443426522 -2.867204461
H 2.200770150 -2.504189566 -2.261821475
H 1.927104737 -1.552856440 2.473004927
H -0.556839512 3.286020305 0.649700522
H -0.646012060 2.097680564 3.864537073
H -5.477157822 1.172809802 1.924450069
H -5.254285224 -2.739682152 -0.342444452
H -3.143915943 -1.434149080 -2.674959883
H -2.507841575 -1.998414762 3.063338815

