19

C 3.726073798 -0.895589209 -1.394761424
C 1.917206106 0.289730617 0.258989479
O 2.375790726 0.482636128 2.757043160
C 0.173586840 2.315547070 -0.694948370
C -2.440334794 2.052369958 0.476035881
C -3.310643323 -0.636934193 -0.122233212
C -1.147167220 -2.416046050 0.467134497
H 5.248802013 -1.953728446 -0.524899550
H 4.070233932 -0.025482711 -3.209679716
H 1.368199225 -2.073284955 -0.893744270
H 3.903682391 -0.424012156 3.135095986
H 1.075494009 4.117191944 -0.243117952
H 0.052057741 2.157533273 -2.748683182
H -2.314283429 2.329319205 2.519699134
H -3.733072021 3.481280565 -0.262655188
H -3.783820332 -0.750084531 -2.133905102
H -5.043051600 -1.095900821 0.911295725
H -1.207189835 -4.155620810 -0.663088230
H -1.010569898 -2.918125022 2.459332589

