16

C 4.798592565 -0.367390916 -0.880783904
N 2.121806773 -0.631662046 -0.429684773
C 0.858822018 -1.555865829 1.573151532
C -3.581479835 0.358582335 1.345294233
C -4.375648161 2.587851974 0.531881710
C 0.112268138 -0.142261890 -1.939750255
C -1.592602842 -1.212294911 0.114721928
H 5.782056383 -0.284422396 0.923827349
H 5.136715497 1.358847008 -1.946587171
H 5.487928921 -1.986827434 -1.952632537
H 1.368709716 -1.186405739 3.521828116
H -4.410829571 -0.455337654 3.041025892
H -5.822773745 3.626556455 1.541710722
H -3.594847493 3.430679860 -1.162859052
H 0.147398505 -0.516129161 -3.958022429
H -2.348409029 -3.040107013 -0.504217575

