15

O -2.930199805 2.470916534 0.983907412
C -3.163682289 -0.042568878 0.105612352
C -0.589359601 -1.292143361 0.038684489
C 1.069735730 -1.143916872 2.374255078
C 2.891390291 0.068219869 1.123523194
O 5.202222022 0.983522588 1.630369321
C 1.556767814 0.172997416 -1.366884165
H -4.551288756 3.269316997 0.900763865
H -4.416168973 -1.140981202 1.345087062
H -3.979843607 -0.080982569 -1.803866361
H -0.837898157 -3.210689378 -0.696789492
H 0.817618524 -1.778862280 4.300857223
H 5.595733261 0.688284439 3.377907236
H 1.018463662 2.067862915 -1.972531845
H 2.459773802 -0.840609007 -2.920462462

