12

C 2.695541041 0.646220081 0.602133640
C 0.792115366 -1.458514226 0.657239962
O -1.464591207 -0.928325426 1.950400015
C -2.996630216 0.347741505 0.184559554
O -1.360460910 1.744044379 -1.386281750
C 0.861198140 0.298212577 -1.535712524
H 4.652322510 0.151210593 0.264509784
H 2.364216909 2.225118364 1.857507900
H 1.332746244 -3.429884210 0.591338579
H -4.082345395 -1.019122704 -0.945342372
H -4.251293127 1.639528332 1.182824954
H 1.457180703 -0.216229247 -3.423177761

