12

O -2.528168716 -1.328724887 4.312806585
C -2.088432471 -0.714629130 2.209893294
C -0.563231964 0.852238287 0.763835577
C 2.103205008 1.499393972 0.482756598
C 0.551537715 0.624759860 -1.801932265
C 1.063469341 -1.831150719 -2.863393980
N 1.453353289 -3.787972779 -3.714105860
H -4.031933114 -0.980958853 0.558159013
H -3.565978582 0.834109823 0.442164903
H 3.506797669 0.193644356 1.200792999
H 2.641012238 3.473485540 0.513318855
H 0.067068157 2.045923667 -3.194656318

