9

O 4.062298897 -0.716527984 1.166112613
C 1.645975511 -0.225624852 0.742884504
N 0.623973960 1.875819025 0.080042695
C -1.930403594 1.271046421 -0.077328443
C -2.257375328 -1.172790357 0.506844861
O 0.085699061 -2.170542677 1.048522534
H 4.979221470 0.829351172 0.887811097
H -3.330590554 2.654018335 -0.599049569
H -3.842960747 -2.435935927 0.636259278

