9

O 4.199607833 -0.771777944 1.173022925
C 1.829204074 -0.731788618 0.880272904
N 1.000632735 1.518874346 0.236257793
C -1.597662640 1.283643657 -0.016231122
C -2.177667304 -1.132557275 0.499730987
O 0.036574005 -2.453451270 1.083682589
H 3.463874733 1.639856955 0.501243505
H -2.835713801 2.812647501 -0.531837793
H -3.906358546 -2.197109713 0.549101424

