19

C -5.231107109 0.214547996 -0.476362483
C -2.659946179 1.053521615 0.504396778
C -0.664183175 -1.015665185 0.293928776
C 1.879743949 -0.190892782 1.312968162
C 4.176730657 -1.708994551 0.706184681
C 3.479599427 1.620919840 -0.210177872
O 2.790470242 1.535000702 -2.715269763
H -5.130166424 -0.300006721 -2.473855663
H -5.923827832 -1.434281417 0.557513105
H -6.637736391 1.710756494 -0.283282872
H -2.827533384 1.642379910 2.481452305
H -2.017420380 2.713829527 -0.544250969
H -0.472186131 -1.591351163 -1.679495340
H -1.291839626 -2.686977577 1.341029329
H 1.779738017 0.356537519 3.292655474
H 4.067633499 -2.944235915 -0.922330573
H 5.398937919 -2.302163954 2.241176048
H 5.533479635 0.368317070 0.094696954
H 3.864867681 2.696651709 -3.594388138

