14

C 3.632649442 0.055194516 -0.981568743
O 1.523461183 -1.318215402 -0.118142559
C -0.758627095 0.027185921 -0.319718114
C -2.924449746 -1.812139053 0.090971416
C -0.898894265 2.088220235 1.677748704
O -2.092680480 3.999681895 1.456736900
H 5.286372490 -1.141777135 -0.729032509
H 3.440279801 0.534222514 -2.989118177
H 3.909902614 1.811112082 0.086758498
H -0.926510609 0.927947236 -2.182741558
H -2.836604504 -3.306437019 -1.323012945
H -2.789304829 -2.677663325 1.958769272
H -4.731266593 -0.834724835 -0.063764556
H 0.165672592 1.647392371 3.436114372

