14

C 3.813751043 0.140528444 -0.896182772
O 1.841660185 -1.505855909 -0.201458203
C -0.505478495 -0.720089210 -0.854289491
C -2.549573285 -2.030679757 0.106508593
C -1.182315087 2.689187933 1.342313530
O -1.830720485 4.672550554 0.779264340
H 5.580322242 -0.802609657 -0.432123881
H 3.769698881 0.547092966 -2.925754640
H 3.683385603 1.920629175 0.153439223
H -0.640036084 0.376047052 -2.587582159
H -4.327767037 -1.901890688 -0.897984664
H -2.187455197 -3.788818960 1.093949811
H -3.131148178 -0.565429206 2.384319324
H -2.668937836 0.921665106 3.187443687

