17

C 4.413783968 0.450663833 -0.508110921
O 1.817057557 0.255889477 -1.084302514
C 0.532915995 -1.368085785 0.569751897
C -0.494399389 -0.137215754 2.906027883
C -2.214999467 -0.887170876 0.732888760
C -3.548972464 0.861800510 -0.826029525
O -2.882665823 3.237625477 -1.123942410
H 5.346152010 -1.391001908 -0.664052444
H 4.706263155 1.184504032 1.406987725
H 5.249596530 1.743594492 -1.873288361
H 1.288594267 -3.283348742 0.596868163
H -0.702206279 -1.253999183 4.609259865
H 0.040334673 1.818800735 3.229324874
H -3.403108492 -2.715212240 -0.606432634
H -3.767261040 -2.417437058 -2.464002329
H -5.457460980 0.484417856 -1.436096839
H -1.068605882 3.345234835 -0.885889056

