14

O -3.454313852 -1.341995527 -3.118202458
C -2.937212106 0.546603697 -1.954239825
N -2.237424771 0.671590070 0.579051013
C -1.361674360 -1.450644915 1.604149220
C 2.542907408 -1.708242194 1.617870275
C 2.928194125 0.793189108 1.265364185
C 2.146393432 2.981241345 0.767558734
H -3.073085001 2.434626385 -2.826653773
H -0.177591038 2.491849087 0.738726426
H -1.512253407 -3.185979300 0.516550721
H -1.517341872 -1.612181652 3.641014693
H 2.809480188 -2.510546491 3.483994344
H 2.951295743 -2.968707491 0.052947405
H 2.888409551 4.836281131 0.408595128

