14

C 2.208554650 0.049526264 -0.783980246
C 0.671985948 0.742755323 1.567110191
C -0.857138385 -1.742256641 1.557141470
C -1.264115491 -0.652993558 -1.100120542
O -1.835143464 -1.633150128 -3.295776375
C -1.477542161 2.001783255 0.048241325
H 0.483036032 -1.068031273 -2.849814672
H 2.999276929 1.643124670 -1.824488754
H 3.523578834 -1.519851259 -0.550027087
H 1.548518404 1.559503287 3.233710475
H -2.571362451 -1.752648094 2.702283716
H 0.182457498 -3.511876592 1.705113091
H -3.243719863 2.306407409 1.067078019
H -0.996227198 3.598288382 -1.157624700

