12

O 2.568946549 -0.649682720 1.338565277
C 1.724643959 -1.430505499 -1.080673994
H 2.943655259 -2.759360909 -2.054572830
C -1.123738396 -1.572599789 -1.344362333
H -1.668725016 -2.232666535 -3.225928809
H -1.948462838 -2.876529561 0.029644795
C -1.943397427 1.124229668 -0.897735579
H -3.911935033 1.676452900 -0.805592987
C 0.007469445 2.670118102 -0.566166255
H -0.100499944 4.681348249 -0.218954629
C 2.415243218 1.210101639 -0.621820032
H 4.200901237 2.041308503 -1.182111620

