14

O 2.301914358 -1.668364646 1.945122425
C 1.714580204 -1.446079771 -0.576323212
C -1.160147352 -1.632579015 -1.138115904
C -2.041464991 0.877065660 -0.184382638
C -0.109070268 2.649930177 -0.350463448
C 2.126795479 1.341760728 -0.598429776
H -0.126737015 -0.669527471 3.083624552
H 2.867901695 -2.633886402 -1.812151544
H -1.497866109 -1.723232239 -3.175479301
H -2.073603147 -3.241272214 -0.240200083
H -3.998115312 1.306162880 0.233827473
H -1.598779525 -0.041582573 3.176147716
H -0.296009667 4.626361018 0.122329059
H 4.005360957 2.139486804 -0.504294865

