11

O -0.890639903 4.587382185 -1.100678162
C -0.503544814 2.451181557 -0.552920220
C -2.156335565 0.088987676 -0.327390950
C 0.143210116 -1.474288469 0.462547829
C 2.585355911 -0.964713142 -1.334890856
C 1.844894772 0.982979122 0.350495573
O 1.437432592 0.331052106 2.751661825
H -3.641963373 0.237430255 1.089092062
H -2.921310665 -0.529377804 -2.134280949
H 0.245902237 -3.361011630 1.219385863
H 3.991798525 -2.201816926 -0.459992617

