16

C 3.668747425 -1.023234275 -0.051896774
N 1.670843872 0.864378342 0.145321734
C 0.013063299 0.444978233 2.263329571
C -2.186824255 2.758580528 -0.840991507
C -0.376525795 0.709759873 -1.689216035
C -2.039184035 -1.440460066 -0.895344452
C -1.820464828 -1.404781110 1.694111408
H 2.956045267 -2.968128195 -0.209671728
H 4.839534030 -0.599466480 -1.695856589
H 4.860212566 -0.905420226 1.627432535
H 0.658452051 0.911370464 4.151104762
H -2.291534905 4.482568809 -1.974937938
H -3.903132632 2.274605378 0.133736371
H 0.220509212 0.796627049 -3.659282070
H -3.282257671 -2.544331355 -2.076525023
H -2.995898552 -2.374804742 3.053535369

