14

O 3.519096820 1.907734213 0.652255091
C 3.175220333 -0.604720108 -0.169629792
C 0.550253854 -1.601880868 0.477029121
C -1.474995340 -0.694815409 -1.255192375
C -3.666686754 0.559150817 -0.066668083
O -2.045109120 2.616434460 -0.807619321
H 2.016919735 2.856588093 0.272693300
H 3.491135109 -0.781310139 -2.211992742
H 4.612068112 -1.724829776 0.796548493
H 0.534533657 -3.658437098 0.187636482
H 0.160489167 -1.252906486 2.483858002
H -1.367586671 1.634640896 -2.539444655
H -3.826048625 0.508657770 1.982786103
H -5.480989998 0.559042782 -1.031787270

