14

C -3.075613738 0.461382794 0.921997452
C -0.806335498 0.478254080 -0.871665182
C 0.913375104 2.750413226 -0.746224463
C 3.356560380 2.241257192 -0.200886636
N 3.241189293 -0.579294920 0.069481280
C 1.038589113 -1.550931395 -0.283585852
O 0.392333127 -3.961486241 -0.158034791
H -4.359089285 1.989528703 0.416615711
H -2.457482226 0.770422878 2.864104271
H -4.113041785 -1.318762762 0.822515655
H -1.472613189 0.132488547 -2.807289561
H 0.194659800 4.632281038 -1.093726219
H 1.807809596 -5.022719696 0.265202539
H 4.805694534 -1.583522727 0.491869821

