13

O -2.586615999 2.756092023 1.177318386
C -1.682017445 0.460870659 0.903518973
C -1.899823271 -0.787145764 -1.539089256
C 0.464827972 -2.200986222 -2.262448430
O 2.928627515 -1.243644750 -1.901955790
C 3.533614546 0.743304477 -0.627311198
O 2.036786917 2.121302518 0.485142075
H -1.922841817 3.553975438 2.672046700
H -1.053615119 -0.561793278 2.563281623
H -3.331889627 -2.271348208 -1.382342805
H -2.571140748 0.585442728 -2.932313690
H 0.538239089 -4.189559649 -1.772530885
H 5.573793257 1.064549584 -0.616866870

