11

N -3.202791267 -0.019930450 -0.968401359
C -1.692836089 -1.009062539 0.791822099
O -2.449869521 -2.592041497 2.453089973
N 0.754342197 -0.644504739 1.227080355
C 2.417049589 0.838083918 -0.088682485
N 4.723625939 1.012364646 0.514868260
H -5.033081915 -0.510814099 -0.983998780
H -2.574322650 1.262076666 -2.211206881
H -0.104297708 -2.301764881 2.933920071
H 1.585506920 1.849766184 -1.705354731
H 5.638784151 2.191102141 -0.687535484

