16

C 4.389242983 1.141378743 1.386270128
C 2.174389252 0.058684065 0.051908566
C 1.429426975 -1.867087905 -1.157839713
C -0.570611553 -2.826905919 -2.429491810
N -3.156592623 -0.115720535 -1.922718003
C -3.813780447 0.179361787 0.786008980
C -2.359619659 1.927485555 -0.764955372
H 4.969408387 2.921939207 0.521353215
H 5.979280144 -0.163751194 1.317438347
H 3.940462792 1.525445169 3.362592574
H -0.552052987 -2.807474017 -4.477122543
H -1.674181260 -4.336844185 -1.591005438
H -2.767037657 -0.958265850 2.144209003
H -5.808627614 0.433756566 1.195684313
H -2.311125205 3.865533148 -1.408341090
H 0.263561331 1.461371246 0.007972414

