10

C 4.154863446 -0.072852929 1.297281224
C 2.174604492 -1.003822706 0.660559455
C -0.157424693 -1.978999583 -0.106700797
C -1.967568082 2.044707931 -1.330794780
N -1.949107990 -0.417551862 -1.000229128
H 5.911239270 0.714155074 1.876807881
H -0.615326630 -3.959565240 -0.019145571
H -3.650699048 2.895525163 -2.092764838
H -0.312205584 3.122400164 -0.834794528
H -3.560634020 -1.311551302 -1.502661403

