10

C 4.371228886 0.039741337 0.227092432
C 2.172148906 -0.529830431 0.385124257
C -0.357290575 -1.362346630 0.658551130
C -2.220275639 1.616162209 -0.976894695
N -2.180385637 -0.913127739 -1.146068609
H 6.305922234 0.557012857 0.061500475
H -0.768981754 -2.686037835 2.172182203
H -1.842021822 2.829680245 -2.593290625
H -2.816732768 2.450611937 0.784158334
H -2.663613721 -2.001867802 -2.634314066

