11

N 2.932820666 -0.728611006 0.200656373
C 0.454793546 -0.700914141 -0.856063055
C -1.631863660 -1.642904573 0.453402745
O -3.189133858 1.870443491 0.744189549
C -1.114595050 2.272181653 -0.308415700
O 0.127706860 4.029147904 -0.927774741
H 2.896964738 -0.595209230 2.107875277
H 3.925851033 0.769061709 -0.456815269
H 0.438518525 -0.942935825 -2.893798445
H -3.283680427 -2.325260111 -0.530471975
H -1.557382391 -2.004996054 2.467215260

