9

O -5.205902093 -0.466317303 -0.264697302
C -3.771668335 1.269643035 0.030987521
C -1.434459940 1.104230999 1.485526387
N 0.660858372 0.599260821 0.688234494
C 2.848474592 -0.095910536 0.097086891
N 3.544811060 -2.795709111 0.445144831
O 3.211362290 -4.041272179 -1.387544578
H -4.181643359 3.209350715 -0.644248246
H 4.334514984 1.196259735 -0.451922409

