10

C 1.120855259 2.295037475 0.655904757
C 2.503500836 0.040952557 0.192467245
N 1.507274337 -2.344868608 -0.519221282
N -0.957415266 -2.633631912 -0.477019541
C -2.372163208 -0.678781158 0.220213621
C -1.465293183 1.776780974 0.511446042
H 2.341846539 -0.733035157 -2.101099191
H 4.539493199 -0.090249181 0.454726158
H -4.362512354 -1.133483222 0.434281249
H -2.846766828 3.287368795 0.694522633

