15

O 4.719106376 0.902145444 2.163894828
C 3.571037473 0.599834977 -0.213764289
C 0.994883810 -0.635457165 -0.001386209
O -0.577135794 0.834455228 1.630879717
C -3.090885768 0.131993118 1.057853964
C -2.956031472 -0.605983144 -1.736697048
C -0.345401344 -1.412215973 -2.286214457
H 3.562643669 1.820530118 3.219754167
H 3.351988565 2.421850835 -1.178863275
H 4.798873719 -0.594108766 -1.354595692
H 1.250381680 -2.573209129 0.810410579
H -4.332854879 1.723107649 1.463555335
H -2.957908311 1.118594769 -2.927060686
H -4.449859974 -1.809735170 -2.481606734
H -3.677987732 -1.486292746 2.217928542

