12

N 3.917473329 1.918804323 -1.076453971
C 1.951252281 0.950319174 -0.169219834
C 1.037140770 -1.117759529 1.385451726
C -0.643297941 1.268941493 0.720331643
C -2.382446473 -0.590155176 -0.629982363
N -0.755523503 -2.758891369 0.079895523
H 1.894666058 -1.690608310 3.155463341
H -1.246619783 2.824441169 1.902354182
H 3.537252023 3.670876126 -1.785524132
H -2.631245377 -0.268096825 -2.655242518
H -4.237550189 -0.750902159 0.254774388
H 0.018506655 -3.691965791 -1.400254952

