12

N 3.797782914 1.910367093 -1.685808651
C 2.912055731 0.353215135 -0.319944711
C 1.262322595 -0.916147767 1.275651759
C -0.670914134 1.739665959 0.669048180
C -2.240932821 -0.285666667 -0.749633453
N -0.759127796 -2.414352194 0.258154295
H 1.931775536 -1.284502896 3.181539974
H -1.481849131 2.072011072 2.545918536
H 2.010064791 3.064159844 -1.218868078
H -2.100123923 -0.094812435 -2.809298718
H -4.241220188 -0.419199571 -0.250654029
H -0.276095336 -3.821886503 -0.939959998

