16

C 3.123329229 -2.055938460 0.017523109
C 1.038574411 -0.146675780 0.017253351
O 1.842012033 2.269569183 1.048246823
C -0.525873628 0.522498237 -2.331704322
N -2.314496873 2.246673355 -1.171410328
C -3.382540958 0.703978520 0.843962950
C -0.963677724 -0.094920849 1.956526186
H 2.411264419 -3.874785871 -0.644971312
H 3.938286829 -2.295944846 1.895662151
H 4.615983738 -1.436799628 -1.262332081
H 0.447610697 3.354285414 0.299607195
H -1.365571750 -1.209268855 -3.144127347
H 0.614068243 1.456930446 -3.775874563
H -4.443073608 -0.982423429 0.178266615
H -4.593419331 1.758455298 2.136241616
H -0.451172226 -0.233184513 3.938314854

