12

C -3.554159800 1.693949534 0.612170429
N -1.229666880 0.370905768 0.064429022
C 0.755399499 1.651128321 -0.209554281
C 3.254359078 0.430503535 -0.766163341
O 5.116983449 1.174356600 1.003336537
H 4.659925010 0.502152785 2.623670542
H 3.942413178 1.064367698 -2.607214751
H 3.003586355 -1.620909390 -0.833686147
H 0.782513233 3.721326144 -0.009557082
H -4.923895391 1.293891207 -0.877681314
H -4.345351089 0.959647580 2.370281569
H -3.318089052 3.748816255 0.779271464

