13

O 5.900204063 -0.783342860 -0.417829992
C 4.431965685 -1.330265940 -2.058269154
N 1.824422311 -1.560361147 -1.733242874
C 0.586691384 0.285376443 -0.856385613
C -2.703249272 0.730315804 2.489941673
C -2.169009372 0.137138540 -0.286863733
H 5.042730214 -1.834219766 -3.986680825
H -1.781616291 -0.638171681 3.726227735
H 1.529744806 2.089716294 -0.455786597
H -4.728310249 0.669161148 2.863508535
H -2.022889002 2.609163909 3.005124951
H -3.151991744 1.509770647 -1.484068255
H -2.846776427 -1.740777477 -0.796650501

