12

C -4.250838592 0.336394966 -0.124446383
C -1.882008880 1.504769789 1.016908946
C 0.479486559 0.025313354 0.369598531
O 2.578207379 1.242884022 1.498358081
H 4.079772570 0.315403378 1.098450402
H 0.297102609 -1.922791494 1.066154623
H 0.704110140 -0.067854056 -1.693075045
H -2.048181040 1.604999426 3.073896091
H -1.642481917 3.444748928 0.347835160
H -4.542141971 -1.592155582 0.554799742
H -5.928155815 1.429270695 0.366298068
H -4.135476840 0.262305721 -2.185261810

