14

C -3.841909984 0.019299924 0.024657543
C -1.268095538 0.901174484 0.961137913
C 0.848080323 0.223696387 -0.859235452
O 3.195325243 1.134902387 0.010828698
C 5.285242282 -1.233753092 1.374902594
O 4.539982373 -2.681223418 2.791161825
H -3.888482058 -2.029797897 -0.231208558
H -5.329884190 0.512346081 1.363470299
H -4.319519573 0.886870278 -1.787584235
H -0.847554261 0.059934478 2.801230683
H -1.262461962 2.949313458 1.231846150
H 0.904054124 -1.846235779 -1.099478337
H 0.466793477 1.035644504 -2.727695562
H 5.518427853 0.067830056 -0.399897663

