11

O 4.101290183 -0.284733879 -0.608418453
C 1.583518739 -0.053163571 -0.294408370
C -0.110671754 -1.868471543 -0.982401054
N -2.462520122 -0.939312445 -0.290022334
C -2.318307374 1.694075825 0.742131259
C 0.264403166 2.002286792 0.833162617
H 4.919685951 1.204470028 0.020739121
H 0.163921912 -3.723342388 -1.773209637
H -4.076919160 -1.467609459 -1.155056562
H -3.029531444 -0.552784973 1.853664179
H 1.166255344 3.641766048 1.658696618

