16

C 2.839730111 0.019581644 2.263909094
C 1.833462024 0.897167868 -0.245764023
C 0.211612231 -1.801173218 -1.753019047
C -0.890177280 0.642652599 -0.671124517
C -2.805973877 0.383949641 1.428741288
O -1.877539715 2.274681874 -2.531293265
H 4.823834469 -0.522827787 2.143364466
H 2.761343629 1.697255875 3.471835280
H 1.790737603 -1.482550351 3.233222926
H 2.389427235 -1.211244431 -1.877402559
H -0.151475835 -1.990731816 -3.762487025
H -0.028945332 -3.491152854 -0.617182852
H -4.636690223 -0.136582053 0.639304061
H -3.022576893 2.194045050 2.390695884
H -2.264800855 -1.043262103 2.810127022
H -0.455355890 3.237643637 -3.129441378

