14

C -3.830769463 0.862762097 1.217215380
C -1.079984565 0.363454351 0.997189522
C 2.004430214 -2.317276793 -1.516757588
O 3.563564664 -0.719529077 0.068729169
C 2.637821171 1.510107415 -0.872035361
O 0.325718505 2.198379439 0.194634440
H -4.874748736 -0.912579586 1.166599028
H -4.281797842 1.797597478 3.009025365
H -4.478490459 2.071920459 -0.318619428
H -0.182747269 -1.123999745 2.071755430
H 1.098594210 -3.851577804 -0.487365942
H 3.162862186 -3.074525899 -3.046537316
H 3.922538305 3.115841926 -0.831505856
H 1.507203114 0.032067292 -2.664774070

