13

C 3.245922414 -0.666427187 -0.428829276
C 0.593910629 0.295494036 -0.651441337
C -1.711798243 -1.346879373 -0.367834170
C -2.993916947 0.988025220 0.631349335
O -0.416312089 1.540805619 1.833325056
H 4.578220679 0.864633322 -0.061064686
H 3.397206215 -2.095598010 1.046647566
H 3.763873517 -1.542840741 -2.225433495
H 0.466534206 1.893249670 -1.981029074
H -2.465332488 -2.490381242 -1.898352819
H -0.565607388 -0.453320788 2.419770700
H -4.473592874 0.876207763 2.057635925
H -3.293739439 2.609113623 -0.633870551

