12

C -1.317570892 -3.297560295 -0.260949843
C -0.878612307 -0.527192053 -0.670114931
C 1.410698920 0.532895662 -0.800483035
O 1.823648090 3.047127780 -1.137518071
H 0.222764166 3.897124002 -1.149923253
N 3.696580880 -0.722969909 -0.712813500
H 3.615751228 -2.495945900 -0.035349481
H 5.115246583 0.307450447 0.026240529
H -2.506810748 0.682393332 -0.956944119
H 0.025484034 -4.110686865 1.087835092
H -3.195772050 -3.628236081 0.520979729
H -1.182596920 -4.402854416 -2.005646385

