8

O 4.057459081 1.836342817 -0.226487909
C 2.827666591 -0.391757611 0.521366953
C 0.043426738 -0.617142619 0.248971776
O -0.819335964 1.508751574 -0.696435433
H -2.624874600 1.385360924 -0.875291245
H 3.601510252 -2.027646274 -0.499832371
H 3.188580980 -0.793943562 2.530148696
H 2.798536538 3.014468267 -0.795441851

