13

C 3.578489967 -0.422090002 0.857276997
C 1.156975069 0.843792327 0.093858785
O 0.868336014 3.116687654 0.161124380
C -0.958949780 -0.865306802 -0.648645998
C -3.272745206 -1.053002073 1.021813371
N -3.188986100 0.569607692 -1.387147471
H 4.402634339 -1.380871162 -0.775726603
H 3.196510725 -1.863822269 2.283239197
H 4.906605531 0.966897874 1.584402923
H -0.471694084 -2.474569394 -1.828783515
H -3.041990163 0.336715672 2.542860052
H -4.207178473 -0.044851572 -2.874302008
H -2.869946189 2.463853229 -1.312121319

