13

C 3.554350152 -0.458913167 0.898515356
C 1.157188079 0.869335244 0.168907406
O 0.856767885 3.119483787 0.410320996
C -0.921407347 -0.783703930 -0.852633032
C -3.228968302 -0.981401673 0.760408086
N -2.898350190 0.631204052 -2.101991501
H 4.522660029 -1.091304365 -0.813197736
H 3.129259416 -2.142755936 2.013287190
H 4.780070736 0.809716067 1.951611934
H -0.280617016 -2.452988514 -1.864264767
H -3.195809693 0.558976301 2.144377510
H -4.647855216 -0.427920336 -1.331484908
H -2.750919012 2.487819927 -1.618766478

