10

O 4.154141570 1.000616843 -0.381094945
C 2.058112420 0.226871410 0.753040856
C -1.835753146 -1.757126046 -0.100596150
N -2.827437386 0.299553489 0.873836232
N -1.370250769 2.089154705 -0.165939138
C 0.076246122 -0.061198440 -1.262623628
H 5.394692668 1.304962829 0.911327907
H -2.148937363 -3.713165608 0.370491956
H -4.103855278 0.620192014 2.263097248
H 0.593978035 -0.022038591 -3.250058325

