10

O 3.979056763 -0.083809448 -0.318288423
C 1.645433783 0.495750940 0.509681756
C -0.730996388 -1.360146894 0.100917498
N -2.828865188 -0.141965959 0.801160672
N -2.272048012 2.283089209 0.428404371
C -0.045593101 1.608786475 -1.102917752
H 4.863136709 -0.947370351 1.008609779
H -0.514874950 -3.341446993 -0.334365287
H -4.215858627 -0.704323830 1.986047374
H 0.117383230 2.187802906 -3.075145521

