12

O 1.871176119 4.114579700 1.568237734
C 1.021315504 2.225940168 0.645683134
N 2.329561997 0.506387453 -0.840008717
C 0.762828277 -1.613915816 -1.382458891
C -1.745351068 -0.924967591 -0.962775606
O -1.673564284 -0.758632367 2.798774852
C -1.649064552 1.122637101 0.948065317
H 4.214833734 0.348058167 -0.665537655
H -0.061611780 -2.304648169 0.878315865
H 1.428143643 -3.159988744 -2.530953077
H -3.416989154 -2.009850496 -1.392754497
H -3.150223206 2.527306226 1.073346430

