14

C -3.038564883 1.851449590 0.816793564
C -1.215348747 -0.356017863 1.090185722
C 1.059737189 -0.313113257 -0.521783600
C 3.342809750 -1.760998264 0.039911866
O 4.162015606 -2.991018372 -1.927130456
C 0.957305945 0.914028628 -2.900338107
N 0.791593707 2.080287279 -4.731180535
H -2.116525857 3.636495280 1.275193708
H -4.631330109 1.605490755 2.097885807
H -3.773917185 1.987036910 -1.102968151
H -0.567403025 -0.625797130 3.041971832
H -2.172173378 -2.144188991 0.618843713
H 4.604629753 -0.219855670 0.873032796
H 3.014109068 -2.924666535 1.768578428

