13

O -4.852633063 -1.688277635 0.633978870
C -2.531284686 -1.441769211 0.197157338
C -1.294361484 1.068708021 1.608535104
N 1.040413190 1.412101513 0.352357521
C 1.571000513 1.195158384 -1.999910102
C 3.204713270 -0.231512559 -0.277513746
H -1.267298886 -3.073703225 0.690412838
H -1.056057420 0.768634404 3.626442788
H -2.562886991 2.633507266 1.203055398
H 1.098219477 2.000038830 -3.805104714
H -1.867804980 -0.819660864 -1.834370831
H 2.944596815 -2.262602216 -0.164759060
H 5.026355756 0.492414346 0.323752245

