10

O -3.421759162 -0.879148857 1.187523739
C -2.354313894 -1.679249827 -1.117410119
C 0.088001371 -3.022168958 -0.664505978
C 1.125795589 -3.400869450 1.576349043
H 2.906432473 -4.392808367 1.756653217
H 0.226261217 -2.726875006 3.285682290
H 1.013536560 -3.709196484 -2.364406959
H -1.998305952 -0.064142785 -2.375931132
H -3.638993895 -2.959782900 -2.131511423
H -4.971535576 -0.012894905 0.841211282

