9

C -1.367854256 -1.731185813 -2.391231583
H -1.678355136 -3.356327773 -3.597892635
H -1.475430052 0.091326816 -3.326878376
N -2.445312862 -1.985329183 0.193605900
H -3.198775921 -0.371372115 0.893072869
C 0.161017270 -1.913766937 -0.131963185
C 2.334476532 -1.911814906 1.070535859
H 4.091830610 -1.880153792 0.029051723
H 2.408340162 -1.960423935 3.114286738

