9

C -1.260733543 1.117471516 -0.413476252
C 0.058432184 -2.079814016 -0.146370702
O -1.696981713 -3.432241946 -0.461314688
C 2.733555641 -2.287815320 0.320734806
C 2.453587594 0.124013693 0.033761091
H -2.107303238 0.910029155 -2.272707035
H -0.478204134 3.011963756 -0.223563615
H -2.648949295 0.845493401 1.076987327
H 3.140263197 2.037193454 -0.090917143

