10

O 4.522215471 0.054803777 0.850747048
C 2.303882811 0.362671816 0.525783451
C 0.459578370 -1.689231209 -0.415145863
N -1.865742325 -0.271906947 -0.512921540
C -1.375726836 2.082072786 0.317449101
N 0.934427938 2.602102115 0.916388896
H 1.049907155 -2.397535275 -2.258531330
H 0.386815259 -3.255504478 0.924791091
H -3.590926273 -0.968534792 -0.860819647
H -2.896139116 3.451155402 0.449888365

