16

C -2.400964618 -2.453212049 0.051413798
C -0.767020691 -0.374838156 -1.036736917
C -1.110485803 2.409585359 -0.210654404
C 1.794790045 2.724074677 -0.165078934
C 2.015671306 -0.159591604 -0.199845927
N 4.032219219 -1.749503967 -0.495086683
O 2.667618693 -1.257664363 2.276522751
H -4.295054914 -2.423733172 -0.762157594
H -2.619010081 -2.253628662 2.098063592
H -1.587885953 -4.310092882 -0.356909153
H -0.736301284 -0.499193020 -3.100510918
H -2.171582858 3.634038844 -1.478326568
H -1.928232223 2.542256058 1.678216922
H 2.666880037 3.687826554 1.429822495
H 2.543690114 3.500683782 -1.921692807
H 1.710576006 -2.801639072 2.455018136

