13

C 2.444616498 -2.980075100 0.284818463
C 1.018755322 -1.026144170 0.905995837
C -1.821575287 -0.964864925 0.723807171
C -2.789831817 1.431321293 -0.473384293
H -4.816637050 1.726653305 -0.417261034
C -1.130574234 3.622674277 -1.150052794
O -1.708471985 2.094423318 -2.933336580
O -2.872639276 -3.117032453 -0.445909357
H -2.291310330 -3.168239704 -2.166892709
H -2.588363126 -0.974483272 2.648496819
H 1.881092382 0.691857704 1.633004336
H 1.630263988 -4.725230695 -0.410868884
H 4.479378195 -2.903570162 0.480825921

