15

C 2.847660838 -1.206180929 0.355603239
C 0.644583389 -0.286378243 1.451546201
C -0.200463886 2.381429366 0.019024364
O -0.958492240 1.819270105 -2.405419402
C -2.800732551 1.497410458 -0.424248825
C -2.164794603 -1.080713792 0.616903323
O -2.296195556 -3.056412836 -1.108318117
H 2.853579366 -1.845956118 -1.589931638
H 4.488094954 -1.692917630 1.475412119
H 4.010740195 1.947025588 -0.509904989
H 0.739283820 0.069208404 3.471270157
H 2.973009150 3.115871727 -0.392174957
H -4.575787260 2.492230755 -0.566847029
H -3.222633845 -1.616685096 2.298788638
H -1.804177996 -2.397484876 -2.732456916

