14

C 3.020223163 1.049052148 0.838611945
C 0.665116870 0.641619580 -0.749811465
C -0.102082533 -2.138727078 -1.043606071
C -3.671178785 -0.447577362 -0.870396307
O -2.247396686 -1.381030806 1.608969193
C -1.834264156 1.112698483 0.515932970
H 2.829933166 0.142730769 2.683185539
H 3.346567754 3.062105145 1.146656956
H 4.694939235 0.276455405 -0.086727053
H 0.800456636 1.591850126 -2.576576848
H 0.891734886 -3.489694987 0.150628879
H -0.529254859 -2.887128845 -2.894656815
H -5.636174817 -0.103567933 -0.322955877
H -2.277257647 2.669080472 1.781557729

