14

C 2.324505978 -2.223944939 0.242326951
C 0.784816979 0.152722450 0.060160263
C 2.094150309 2.635309214 -0.034493908
O 0.441662368 1.085964490 -2.536633839
C -1.748927488 -0.039227256 1.389212677
O -1.828719869 -0.784548695 3.554448663
N -3.800075624 0.719627834 0.070043681
H 4.156260483 -1.945345999 -0.662563018
H 2.640002463 -2.634640969 2.234721197
H 1.341360390 -3.833040290 -0.597920684
H 0.651491699 4.076825920 0.383180333
H 1.868649234 0.542229095 -3.526868375
H -5.472544452 0.765033568 0.965007467
H -3.656036919 1.353198201 -1.709750007

