9

N 5.606066907 0.046138684 -0.469469064
C 3.489256570 0.360477938 -0.125168070
C 0.830112089 0.637012957 0.249107005
C -1.128837595 -1.224913198 -0.500576734
N -3.394795435 0.057833783 0.338003255
N -2.853468685 2.103767428 1.303878882
N -0.158030577 2.568724393 1.293658619
H -0.957094239 -3.052930600 0.445996738
H -1.222047240 -1.572057569 -2.534937413

