9

N 5.757043117 0.121962660 -0.094034926
C 3.606458802 0.329419439 0.077705689
C 0.924997203 0.495744629 0.269334860
C -0.861109663 -1.396413649 -0.154320421
N -3.228611729 -0.223759371 0.345362756
N -2.733464235 2.159410319 0.869812174
N -0.289032893 2.600758974 0.919532323
H -0.684678029 -3.421152844 -0.328341369
H -2.393499330 -0.721505466 -1.881172506

