12

O 3.065089627 1.347612700 -0.512011070
C 0.279239916 -3.741300020 0.034279424
C -0.712957233 -1.508891471 1.261869212
C -1.398088910 0.726872288 -0.403268235
C 0.823839729 2.319104290 -1.214856813
O 0.648613702 4.255698589 -2.378806275
H 4.353354117 2.464199276 -1.162927574
H 1.044410017 -4.963659046 1.547076146
H -2.483260395 -2.601614585 1.712677627
H 0.057742585 -0.946504894 3.100721566
H -2.734261208 2.006334888 0.509179769
H -2.284710178 0.052389029 -2.141087913

