12

O 2.627084087 0.819091527 0.323305703
C 1.291392497 -1.994161612 -0.249722281
C -1.093669036 -1.461505757 1.210034459
C -1.828404739 1.018878986 -0.091509704
C 0.572561504 1.625378082 -1.475155494
O 1.111854853 2.834113354 -3.269719490
H 4.141508865 0.888596543 -0.697801157
H 2.653807290 -3.279698358 0.622320733
H -2.459199571 -2.959779215 0.837625942
H -0.903896937 -1.249442618 3.263987950
H -2.303171348 2.577273628 1.178721678
H -3.332828764 0.805230178 -1.476249343

