8

C -1.638458048 -0.755382473 2.154321079
O -0.032812335 -1.246090150 3.561468240
C -3.453236916 -0.200667693 0.571450194
C -6.128040821 0.334041123 1.386656672
H -6.707476828 2.232842261 0.825544092
H -7.443200385 -1.010092288 0.538269287
H -6.325362848 0.196702594 3.432195553
H -2.920348265 -0.148595477 -1.402977424

