16

C 4.585598888 -0.552026304 -0.333558809
C 2.247160640 0.797674789 -1.269002418
C -0.313974311 0.536993042 0.978463224
O 0.415453926 0.568346262 3.147248909
C -2.549796896 0.102800591 -0.290560982
C -4.986993290 -0.348424755 1.062922304
H 6.278248083 0.248835168 -1.195204493
H 4.730596213 -0.335468982 1.710275426
H 4.536451704 -2.566736193 -0.775387529
H 1.847631492 0.482123747 -3.276606634
H 2.384990971 2.834843960 -1.003533994
H 0.264278822 -0.996468837 -0.841839465
H -2.563202065 0.434322823 -2.310635312
H -6.102991367 1.387424014 1.187473037
H -6.130998129 -1.751737132 0.076236333
H -4.628285477 -1.002027202 2.983133225

