16

C -4.172336742 0.582546628 -1.221363820
C -2.779777529 0.746960020 1.317445622
C -1.121303880 -1.493867657 1.666382625
N 1.165684023 -1.729319878 0.938191838
C 2.847141560 0.190295175 -0.470923813
O 1.812558365 2.189362100 -1.024245411
C 5.172691631 -0.854395372 -0.789057865
H 5.644180434 -2.715497059 -0.093814716
H 6.615405951 0.211798331 -1.758959382
H 2.026276487 -3.400314645 1.286340674
H -1.934455262 -3.149847755 2.577911901
H -1.651541302 2.461181100 1.356820976
H -4.137464775 0.751076127 2.872318344
H -5.527348249 2.126520109 -1.364535783
H -2.813668936 0.762847609 -2.757110888
H -5.204121952 -1.193498675 -1.426596903

