14

C -2.600348204 -2.822020373 -0.722735621
C -1.468403144 -0.264586016 -0.325890281
C 0.201694324 4.552779863 0.389367126
N -1.192090432 6.222793106 0.444786444
C 0.959074351 0.234278740 -0.028212383
O 1.824742941 2.752740235 0.340862373
C 3.197424332 -1.459630600 0.005773661
H -1.196228913 -4.325388117 -0.754617152
H -3.955898302 -3.247529305 0.774305831
H -3.634441885 -2.878737517 -2.508030018
H -2.781956081 1.312794364 -0.279760025
H 4.166981315 -1.328209597 1.821831950
H 4.534704973 -0.906196563 -1.463779078
H 2.648507062 -3.413333781 -0.307138926

