14

C -2.753840471 -2.165163987 -0.116314778
C -1.242257596 0.189414563 -0.590181613
C -0.920853279 3.319083974 0.926281555
N -2.162600668 4.918026393 1.822445601
C 1.372421384 0.431447472 -0.321595992
O 1.760887583 2.782558772 0.347046067
C 3.526809680 -1.322344057 -0.489545326
H -1.943728393 -3.291384670 1.407149051
H -4.663202135 -1.639321426 0.454233317
H -2.913086331 -3.349565351 -1.801025139
H -1.882923451 1.331178640 -2.189721678
H 4.454170080 -1.506100459 1.344377376
H 4.915215142 -0.518451465 -1.790876913
H 2.936367190 -3.169536982 -1.168186757

