9

C -0.028242033 0.698913790 2.232190286
O -1.123079788 2.419956290 3.148254792
C -0.163381771 -2.184275222 2.257829410
H -1.848561408 -2.999876123 1.397064622
H 0.259426043 -3.074414367 4.067622123
O 1.981332677 -2.224997063 0.564048326
C 2.224258463 0.352200428 0.441965933
N 3.819863003 1.562369057 -0.787762873
H 3.571127386 3.449384596 -0.539809829

