13

N -2.375329406 0.719847817 -1.657991826
C -1.737128926 0.472740350 1.228912199
O -2.848456337 1.862090241 2.588269604
C -0.268036335 -1.918122642 1.768403988
O 1.730855054 -2.087754569 0.093461149
C 2.479747357 0.489684844 -0.443663153
N 4.756551847 0.680569916 -1.089348555
H -3.689352564 2.097786407 -1.897077216
H -2.904661271 -0.931416943 -2.487017606
H -1.527971979 -3.553867894 1.549019276
H 0.311437826 -1.802508612 3.751954995
H -0.518100864 1.257160222 -2.171459251
H 5.134339790 2.514866953 -1.509091517

