14

C -2.599954272 0.999968421 -0.024042589
C -0.526752370 1.888899502 -1.673909329
C 1.993077684 1.809625396 -0.295379557
C 2.321104187 -0.549558001 1.279069480
C 0.585461191 -2.316802358 0.915197064
C -1.483254237 -1.550575163 -0.845232128
H -2.452597680 1.260125977 2.013526864
H -4.493970849 1.367632005 -0.730202439
H -0.534028496 -0.972187916 -2.745539358
H 1.997786749 3.514534378 0.895528077
H 3.570328032 2.040174516 -1.610645928
H 3.885526602 -0.751788232 2.584531007
H 0.584935223 -4.145402834 1.832050852
H -2.867148620 -2.934556398 -1.463986438

