8

C 0.443714818 -3.805932018 -3.630428334
C 1.566999888 -2.168713290 -2.159823754
C 2.653552158 -0.582211466 -0.732472019
C 3.779016781 1.053595541 0.737938713
H 5.762850454 1.503484095 0.495382179
H 2.762102713 2.005143302 2.240333759
H 1.462314106 -4.756692953 -5.132170781
H -1.539978939 -4.257369731 -3.389474401

