14

C -3.036661494 1.434305757 -0.414789007
O -1.382021098 -0.600000214 0.221244429
C -0.649771065 -2.383434989 -2.025772251
C 2.036607336 -2.153187168 -2.634255371
C 3.134513365 -0.607787322 -1.188242402
C 3.569159595 1.097012736 0.673567857
H -4.917813534 0.674149099 -0.754131379
H -3.082612944 2.714982865 1.196337686
H -2.350999862 2.430601268 -2.087240734
H -1.194934016 -4.228122402 -1.299011628
H -1.919458679 -1.796711348 -3.538930743
H 4.443220629 0.491910941 2.429026635
H 3.757300502 3.089655594 0.216404387
H 0.512791716 0.223867842 0.701068739

