13

C -0.277218136 -1.441173059 1.522907739
C -2.335455523 -0.279841227 -0.179154030
C -0.968968900 1.862234578 -1.461832547
C 1.512500281 1.710040155 -1.154620394
C 2.257864427 -0.561831318 0.389876143
H -0.421791217 -3.491611282 1.667190710
H -0.466030896 -0.678297936 3.431285045
H -3.025593992 -1.632463515 -1.587616252
H -3.985366426 0.345987707 0.892148377
H -1.929443689 3.297122049 -2.561850231
H 2.876344424 3.002395846 -1.967805205
H 3.101760480 -2.008074456 -0.829342309
H 3.661399150 -0.124487541 1.838812972

