13

C 0.754160613 -2.382348964 2.020332505
C -3.287634226 0.810740979 -0.573575872
C -1.207873614 1.755027561 -1.769796243
C 1.288109779 0.939589971 -1.524509131
C 2.207117060 -0.686399627 0.475362572
H 1.638077495 -3.102779988 3.716461233
H -1.054665259 -3.155714864 1.522322812
H -5.047577040 1.854483110 -0.646119831
H -3.348916778 -0.988357131 0.359408032
H -1.486040902 3.425214319 -2.934228493
H 2.723822625 1.848589206 -2.665824228
H 4.117900384 -1.404460877 0.085348951
H 2.668917086 0.871537418 1.841259279

