8

C -4.793422993 -0.488417783 1.678804381
H -5.847827110 -1.570056425 3.037133623
C -4.277814640 1.933688335 1.245262809
H -4.669081319 3.779925361 2.030476252
O -2.805366046 1.669313836 -0.881247889
C -3.220751810 -1.051117298 -0.622529964
H -4.196819863 -1.786774488 -2.281569529
H -1.426933519 -2.022309763 -0.329995768

