11

C -0.238391936 1.904712673 0.525248791
C 1.944448417 0.077346774 0.726687340
C 0.694556346 0.513112988 -1.755845132
N -1.302611631 -1.497207086 -1.524156036
C -2.020568626 -0.372136169 0.933552976
C 0.143940004 -2.137791928 1.444459255
H -0.383993558 3.905658478 0.863525017
H 3.893811917 0.389430357 1.234829158
H 1.425991623 1.170484796 -3.543674579
H -3.953547823 -0.502730871 1.595949585
H -0.260918039 -3.397774966 -0.663024792

