14

O -1.314293616 3.935350232 0.876112426
C -0.623804036 1.539526539 0.154777773
C -2.077981038 -0.433703200 -1.305889135
N 0.367970249 -1.853391737 -1.597574144
C 1.767545655 0.604911461 -1.024523692
C 1.305385560 0.101322031 1.732393121
C 0.892149247 -2.643461776 1.086502231
H -2.700131639 0.241344822 -3.152991466
H -3.598924520 -1.489843768 -0.389880319
H -1.621451458 4.927915576 -0.610161215
H 3.295894918 1.426307774 -2.096045610
H 2.182637208 0.994222728 3.346721237
H 2.623826294 -3.757114930 1.145964164
H -0.646340532 -3.686993317 1.988278479

