14

O -1.707967504 3.983839849 0.782547134
C -1.110768695 1.573396951 0.555740410
C -2.266747311 -0.408316922 -1.192971498
N 0.262382463 -1.549724540 -1.688021256
C 1.567499267 0.927249322 -1.041971930
C 1.061902003 0.259891728 1.773254915
C 0.958992356 -2.470019292 0.905804445
H -3.038107796 0.444107825 -2.898306216
H -3.628525833 -1.705855792 -0.347678710
H -0.065863078 3.358047481 -0.963701477
H 3.412951508 1.494674362 -1.725279871
H 1.992990983 1.112002100 3.381361901
H 2.819712960 -3.350837117 0.850135608
H -0.405965234 -3.762065427 1.762770431

