13

C -1.267811531 0.158792250 1.917514585
C -1.268521142 -2.234008845 0.315770155
O -0.849864470 -0.736958191 -2.061422558
C -0.397903794 1.509609907 -0.481497870
C 2.346169477 2.285171328 -0.618110934
O 3.289243422 3.584733584 0.979859127
C 1.212141390 -2.796766489 -0.768850305
H -3.133543671 0.754622406 2.544992835
H 0.070687549 0.171057045 3.476060556
H -2.906921081 -3.474614594 0.267484591
H -1.607762754 3.044129144 -1.142303235
H 3.354757260 1.669668632 -2.337193901
H 0.950522150 -4.363457292 -2.103845493

