12

O -3.678390660 -2.352536493 -0.944884719
C -3.049438386 -1.202618115 0.926594815
C -0.992282659 0.651157916 0.990788245
C 0.233742870 1.474361677 -1.470673498
C 2.198076894 0.043698197 -0.220667496
C 4.582852681 -0.162356462 0.516766585
H -4.021289232 -1.510067655 2.752710661
H 1.206929223 -1.687050522 0.729670897
H -0.814993789 1.836642357 2.646883655
H -0.666029929 0.618363874 -3.107074825
H 0.585456712 3.484426789 -1.673654537
H 4.988699731 -0.991180250 2.359891156

