13

C -3.268654383 0.130224920 -2.232460498
N -0.908786017 -0.066270919 -2.420766245
C 0.410108288 -1.594707959 -0.573275008
C 2.430918723 -0.030100332 0.754550596
C 1.322010842 1.986466912 2.429832981
O 2.186838957 4.061292901 2.703864699
H -0.405477155 1.410333560 3.484904436
H -4.298622622 1.276234910 -3.594102317
H -4.370194147 -0.809411916 -0.745700310
H 1.322253369 -3.149372055 -1.578874832
H -0.889581109 -2.429235053 0.823339651
H 3.547160235 -1.270712960 1.982113871
H 3.712011798 0.847246368 -0.599060227

