13

C -2.702989226 0.616501964 -0.442339872
N -0.805033439 -0.033165336 -2.015163650
C 0.691893079 -2.070887970 -0.851704289
C 2.246563751 -0.356080980 0.858487536
C 0.728166070 2.055859318 0.370426326
O 1.179576004 4.227216751 0.047729096
H -1.389088182 1.595885428 1.679809564
H -3.749436973 2.312942725 -0.941027447
H -3.770643990 -0.819336228 0.606781421
H 1.815521890 -3.050975886 -2.266847391
H -0.454774781 -3.468747467 0.160029926
H 2.435471130 -0.792794703 2.861628862
H 4.114793088 -0.008595022 0.067942155

