15

C -1.294007538 -2.497478751 1.360393182
C -0.322422596 -0.027508819 0.445807784
C -2.116322768 2.111926358 0.156713249
C 2.382983345 0.586162733 0.979828759
O 2.347166817 1.186302560 3.271928617
N 3.985857661 0.378679629 -0.835991783
H -1.548760534 -2.286830168 3.401024993
H 0.065800264 -4.006403122 1.037963462
H -3.118351180 -2.960084047 0.526594691
H -0.035622320 -0.818863627 -2.776773375
H -1.304716257 3.633750718 -0.963458062
H -3.918614629 1.498951058 -0.627103951
H -2.451135939 2.830573651 2.065870539
H 1.475587788 -0.531908299 -2.657879895
H 5.774977072 0.821332043 -0.321939412

