10

C -1.618275074 1.784831849 2.226012677
N -0.304092007 0.771924417 0.462596433
C 1.667467253 -0.528047853 -0.419130105
C 4.182769126 -0.507655648 0.380025095
N 6.258442808 -0.571669818 1.044506771
C 0.068415928 0.826073517 -2.264327007
H 0.573549604 2.689043369 -2.983225425
H -1.266512552 -0.242021666 -3.399693038
H -1.042488317 1.520701673 4.167455674
H -3.296229399 2.828469762 1.720658508

