13

C 3.521776565 -0.181423346 -0.975570998
C 1.423001018 1.043927268 0.189409479
O 1.738200023 3.451321849 0.070065394
N -0.668074159 0.077390143 1.259033961
C -2.170944962 -2.008255152 0.410459683
C -3.257191645 0.594643086 0.643572291
H 5.225266003 -0.007212423 0.164710003
H 3.303771712 -2.043155861 -1.810329716
H 3.396105885 2.623248113 -1.362391681
H -2.616906457 -3.421388530 1.823073084
H -1.816326705 -2.723721676 -1.476665801
H -4.481929911 1.042783776 2.220385564
H -3.605150998 1.647058494 -1.079464909

