13

O 2.249796411 3.955334483 -0.343414146
C 3.244437505 1.919723448 -0.292409229
C 1.927661564 -0.544210869 0.287199461
C -0.606227221 -0.089280583 1.539615791
C -2.553754304 0.520701656 -0.369687689
N -2.765411926 -2.260466693 -0.121617520
H 5.287330751 1.718842160 -0.721691623
H 3.197022652 -1.663845800 1.472507175
H 1.785911866 -1.539197027 -1.536123841
H -1.544825633 -2.478080240 1.738942609
H -1.929714751 1.063080625 -2.249899515
H -4.194664498 1.583628419 0.252609026
H -4.387930172 -2.547278780 0.885461071

