10

O 1.466496958 2.229531291 -2.018546978
C 1.088996386 -0.141529318 -0.998659786
C 2.465841316 -2.108236328 -1.988532590
O 3.575642603 -3.850475584 -2.616002450
C -1.526996389 -1.280668642 -0.164204482
H -2.035938506 -3.188058528 -0.768684708
H -2.973770407 0.120967360 -0.565620918
C 0.423162875 -0.682570002 1.686037251
H 1.410254797 -2.197285968 2.658394770
H 1.707922944 3.311094646 -0.570217904

