11

C -1.622447362 0.148107833 -0.200583449
C -0.884064526 -1.273956221 -2.563079573
O 1.010463714 -2.488894954 -2.798661770
C 2.690426932 2.047317227 0.929722066
N 1.787729896 1.286986129 3.085005205
C 0.034006056 -0.233667243 2.054580257
H -1.664875040 2.154564910 -0.703553068
H -3.550180528 -0.462616445 0.276230074
H -2.263333786 -1.113301627 -4.132737682
H 4.764206372 1.890376115 0.911134569
H -0.304573603 -1.957187155 3.130470844

