12

O 2.143183468 -2.799039640 2.111322307
C 0.704175109 -3.131352647 0.378220823
C -1.118887450 -1.178779069 -0.600397492
C -0.401853360 1.532363910 -0.102147350
O 0.346875633 2.072792681 2.286857512
C -0.616511318 3.329257428 -1.837446662
H 1.174410891 0.592792912 2.975760723
H 0.618913236 -4.999896283 -0.558053340
H -2.917887653 -1.605354449 0.349734146
H -1.438720044 -1.494409819 -2.611226526
H -1.316197553 2.897003458 -3.706205728
H -0.126692568 5.262474692 -1.391742756

