14

C -3.160663848 0.556522170 0.426484919
C -0.991375893 -0.936956373 -0.681752261
C 1.276178331 0.298293023 -1.760219168
C 2.398087926 1.535579298 0.353720391
C 1.436814519 -1.527573624 0.934405431
O 2.935591155 -2.971179290 -0.463408580
H -2.555339312 2.225345075 1.468161259
H -4.458942980 1.171284736 -1.054005971
H -4.220417988 -0.641189554 1.728340887
H -1.582849531 -2.593033773 -1.739481351
H 2.111753826 -0.032689390 -3.598972349
H 1.246790633 2.809551903 1.464458850
H 4.409441264 1.902416750 0.331310072
H 1.165433086 -1.781691578 2.992243141

