16

C 0.322596659 2.319448522 3.392733971
C 1.613173418 0.044963576 -2.944700372
C 2.446205417 -2.530070329 -3.792129685
C -1.358728012 0.051489103 2.915067766
O -3.353169909 0.596206060 1.184689962
C -2.746832762 0.745106690 -1.284400473
N -0.619956913 0.237422658 -2.201658189
H 1.355768267 2.862478011 1.693719063
H 1.698808115 1.861161232 4.859834016
H -0.800559777 3.924518851 4.035107249
H 4.106842670 -3.062601425 -2.688634602
H 1.004073095 -4.008843647 -3.642269395
H 3.096951751 -2.389630891 -5.745309997
H -0.260970535 -1.556589651 2.213548233
H -2.323234192 -0.534210798 4.637335867
H -4.314843030 1.327671422 -2.460907864

