14

C -0.684487564 -3.001779512 0.257071615
C -0.931417699 -0.311502209 -0.694692293
C -2.293923576 1.611921134 1.006124317
O -0.028466475 3.132886500 1.150483652
C 1.293230634 1.434633757 -0.303377123
C 3.699722606 1.521796410 -0.955565961
H 0.037191095 -3.033688898 2.189235205
H 0.616793303 -4.080924907 -0.923417127
H -2.510718796 -3.963141811 0.226694607
H -1.619529247 -0.278701892 -2.638655504
H -3.851162801 2.662920759 0.157287178
H -2.840131357 0.912561879 2.870171672
H 4.905558736 3.056635824 -0.350062165
H 4.485794212 0.040676733 -2.120999444

