10

N 2.731384497 0.029434525 0.488271631
C 0.356226168 -0.868099099 -0.096550624
O 0.408284589 -3.373157674 -0.638799032
C -1.746196323 0.529596219 -0.067581387
O -1.566760837 3.123322671 0.292859437
H 4.128890237 -0.847072286 -0.461546104
H 2.834146689 1.929038721 0.404681732
H -1.259500856 -3.914177835 -1.101344858
H -3.595957991 -0.256278232 -0.470335636
H -2.174891390 3.532677166 1.950975720

