10

N 2.714926211 0.061141994 0.229137437
C 0.673491852 -1.466801034 0.090399452
O 0.741814504 -3.742814315 0.336942930
C -1.817862316 -0.119489840 -0.439275190
O -1.690758033 2.545312652 -0.324220009
H 4.431591614 -0.723814333 0.417576316
H 2.535958337 1.904715942 -0.183141768
H -2.380440189 -0.629916544 -2.357474574
H -3.231269157 -0.902313932 0.846220474
H -1.977452824 3.073979409 1.383834933

