10

O -2.756810630 -0.049825162 2.907112113
C -3.215193956 2.067745431 1.205571058
C -0.950932409 0.576915906 1.199697695
C 1.260924727 -0.129462869 0.475165757
C 3.541263723 -0.743675581 -0.242303915
O 4.152102575 -2.433292578 -2.069740982
H 2.621126744 -3.134777605 -2.752951091
H -3.228691929 3.904303261 2.117630667
H -4.669602562 1.730645994 -0.200273420
H 5.221252150 0.075192051 0.597880849

