14

C -1.617378172 2.523436426 -0.486941245
C -0.573191709 0.583800443 1.304903869
C 2.902677947 -1.149618459 -1.373900661
N 0.475277761 -1.647788779 -0.076659405
C -2.143116949 -0.300317638 3.254878053
N -3.340526129 -1.086516347 4.917351818
H -2.942543137 1.749071334 -1.906813576
H -0.147688257 3.559194937 -1.507343029
H -2.666838331 3.922576270 0.598844458
H 3.580776592 -2.871004058 -2.280244321
H 4.233719260 -0.473186174 0.035812313
H 2.602928247 0.310752762 -2.786321027
H 0.739244892 -3.028666932 1.235104851
H -0.777872613 -2.372628345 -1.379110995

