15

C 3.909753835 0.049494025 -0.775627297
C 1.389645236 -0.099058102 0.600705158
O -0.301581071 1.536998255 -0.620402416
C -2.441521070 2.202093582 0.608061351
C -3.219580256 1.501991778 2.884582439
H -2.219269038 0.183552424 4.082410080
H -4.983334761 2.251857554 3.586346371
H -3.530312212 3.487394604 -0.555187495
C 0.487119125 -2.826395845 0.606210440
O -1.280123928 -3.614882502 -0.556714866
H 1.683066772 -4.099819144 1.775864230
H 1.649983695 0.476077852 2.580206728
H 4.671609584 1.956532346 -0.640856755
H 3.649457913 -0.422788690 -2.764647853
H 5.272587353 -1.261141686 0.047067673

