9

O 3.774510426 0.635961060 -0.752953173
C 2.575513159 -0.385693612 0.892148358
C 0.030579000 0.294050720 1.851812323
C -2.024945912 0.309887872 -0.944100388
O -1.870574620 -1.353383527 1.178237417
H 3.428381386 -1.840761450 2.156502579
H -0.833516809 2.067036916 -0.414434703
H -3.917202134 1.093611720 -1.088657274
H -1.246820302 -0.510598065 -2.654582909

