15

C 3.802606364 -0.868799205 0.098904902
C 2.117128094 1.473618712 0.123762926
C -0.603575520 0.861955751 -0.442362096
O -1.589840856 -0.611497535 1.370976234
N -1.913875709 1.540654573 -2.322925675
C -4.143655990 -1.370978483 1.038315159
H 3.748366009 -1.797330271 -1.742391416
H 5.759210142 -0.357685547 0.498091744
H 3.189935347 -2.228315762 1.519201552
H 2.196808434 2.372931797 1.981504132
H 2.775639710 2.853942647 -1.258939513
H -0.878735857 2.638139249 -3.501324191
H -4.363712802 -2.425633481 -0.718842483
H -4.590484189 -2.558030849 2.655900634
H -5.387988733 0.271082271 0.976118849

