12

C -3.349331346 0.574157832 0.490156935
N -1.342795542 -1.312942575 1.406054200
C 0.911149082 -1.146406284 -0.191999954
O 1.234036324 -2.731098147 -1.773228232
C 2.586211881 1.096019704 0.260027335
H -2.058264958 -3.089791598 1.253696146
H -2.533745997 2.443938029 0.837727440
H -3.458920438 0.258687312 -1.550728514
H -0.989633282 -0.951247823 3.255709759
H 2.702752028 2.211701422 -1.465020156
H 4.478186515 0.391583284 0.681024754
H 1.927624147 2.304270923 1.787955453

