12

C -3.839209660 0.188859040 -0.314646278
N -1.138773019 -0.206601301 1.010015452
C 1.080782937 -0.128710361 -0.410747979
O 1.073344030 -0.671219117 -2.619893377
C 3.381585437 0.702284721 1.042854073
H -2.383928453 -1.894350738 0.629297394
H -3.658782861 -0.557575995 -2.216607265
H -5.218114562 -0.736423039 0.911171740
H -1.078448350 0.538582906 2.760036052
H 3.382655268 2.762128867 1.192660733
H 5.062601383 0.120640135 0.016206764
H 3.419749495 -0.084679081 2.948017692

