15

C 3.019355023 -0.779605681 -0.933802533
C 1.101064951 0.598234870 0.663921145
C -0.750642888 2.473321305 -0.579662056
N -2.741784264 1.496573102 1.104431952
C -1.304195335 -0.789073171 1.608133292
C -2.574138175 -4.579602352 -1.238054373
N -1.991796299 -2.890825093 0.046936658
H 2.135198865 -1.701955265 -2.551613339
H 4.430172486 0.546672105 -1.645799369
H 4.007584522 -2.222507235 0.160365674
H 1.997548360 1.476227271 2.298879893
H -1.052486877 2.046728407 -2.583476427
H -0.360577791 4.484977699 -0.358036922
H -4.488345172 1.251639860 0.374219101
H -1.347199606 -1.447914393 3.560746157

