15

C 3.113355745 -0.833252115 -0.886778040
C 1.199027069 0.676484612 0.591504969
C -0.714612425 2.474784331 -0.738964286
N -2.574210930 1.468833888 1.049742087
C -1.161496106 -0.437787673 1.759798742
C -2.118219846 -3.318078318 -1.524900550
N -3.054067402 -4.374256907 0.176030861
H 2.214994213 -1.792469329 -2.466008008
H 4.600002759 0.421750834 -1.573166631
H 3.986613400 -2.259572512 0.318317771
H 2.133558375 1.714149554 2.120459795
H -1.134706461 1.854028461 -2.661601919
H -0.404962110 4.504973610 -0.618979565
H -4.466971047 1.648270413 1.143970673
H -1.538539913 -1.784965510 3.237762955

