9

C -2.415448575 0.506984002 0.120074937
C 0.814021392 0.033010171 -1.114966325
O 0.404939963 2.317746975 -0.350085692
N 2.821312066 -1.089282698 -0.042253407
H -2.909411268 1.837688510 1.613810029
H -2.520687971 -1.413290906 0.854189335
H -3.495085525 0.748844436 -1.593676452
H 3.942201113 -0.098591207 1.153430585
H 3.400437647 -2.788312874 -0.648044101

