13

C -2.255218205 -1.688175986 0.060152005
N -0.120082514 -0.326825280 1.104494162
C -0.209225922 2.432672673 0.922936759
C 1.450512880 1.948260297 -1.263334241
C 2.457782654 -0.442690284 -0.799969861
C 3.936014868 -2.216344914 -1.621842026
H -1.601161147 -3.525062080 -0.607806427
H -3.212455062 -0.713717867 -1.499882069
H -3.619287831 -2.013794279 1.576265271
H -2.056372946 3.211774269 0.431026007
H 0.585010132 3.392693342 2.562454301
H 1.163689833 2.707117125 -3.157153455
H 3.439642623 -4.191387883 -1.339025539

