16

C 3.419113735 0.384980694 -0.300787216
N 0.685180092 0.658442149 -0.213275265
C -0.688296194 0.282115720 2.185576336
C -0.611359358 2.910240120 1.112720404
C -0.761387436 -0.502872657 -2.303081567
C -2.977126296 -1.697910608 -0.989366207
C -2.905888346 -1.294564743 1.478923646
H 3.949453221 -1.596763471 -0.533167272
H 4.161722585 1.483845324 -1.879154241
H 4.216433728 1.116926368 1.447168896
H 0.479591571 -0.351321724 3.759360662
H 0.970227250 3.911295342 2.012532055
H -1.317878729 0.978332455 -3.624931234
H 0.416211385 -1.887584101 -3.292143792
H -4.446280606 -2.681261987 -2.013593515
H -4.299768401 -1.918074322 2.836220531

