12

O 3.186965775 2.672698523 2.343835079
C 3.671961868 0.890654001 1.046800200
C 1.645447446 -0.905168628 0.017550057
O 2.201997849 -2.541796457 -1.454027165
N -0.752241729 -0.496865728 1.006653308
C -2.965254111 -1.158775430 -0.479923728
C -2.636088443 1.629835568 -0.694732922
H 5.602254517 0.390705922 0.431199805
H -4.513909369 -1.882047657 0.653824547
H -2.486274962 -2.336641383 -2.087836243
H -1.484737936 2.063392390 -2.364271806
H -1.320048304 1.562104987 1.580273116

