11

N -3.526252513 0.624953349 0.817291752
C -1.996831663 -1.175891624 0.203298910
O -3.542154370 -2.853276632 -0.412618808
C 0.793769443 -1.459128613 0.125200649
C 2.363144225 0.357882343 -1.249316120
O 2.295726904 0.317471872 1.422408325
H -2.072535131 3.355187324 1.177834149
H -1.037932943 2.929002928 2.118754166
H 1.378748036 -3.422709411 0.261014188
H 4.111953605 -0.291891746 -2.097988041
H 1.469065833 1.981843678 -2.129374275

