13

C -2.023119019 -0.935062036 2.186704465
C -0.689779288 -1.096554799 -0.338278381
N -1.740779423 0.395553334 -2.215216086
C 2.046995047 -0.263802290 -0.458660020
C 2.480201458 2.332115394 -0.691413637
O 0.987840650 3.879071694 -1.558801462
H -2.050444969 1.027950522 2.813102850
H -1.062042088 -2.077522968 3.607568071
H -3.970749848 -1.586257727 1.998857525
H -0.511200661 -3.068813483 -1.011220795
H -0.943654431 -0.101062307 -3.899952261
H 3.560610909 -1.634986092 -0.342658690
H 4.254671788 2.992788894 0.192168801

