10

O -3.121082212 -1.411034781 1.881394795
C -0.645292376 1.749882593 -0.283667072
C -0.898815671 -0.763745021 0.961253488
C 1.294089420 -2.166906504 1.004739847
C 2.852766916 -0.477061663 -0.219377644
O 1.936211157 1.764091425 -1.009800874
H -2.905457696 -3.079769473 2.600260181
H -1.006296055 3.326508462 0.995788233
H -1.828258530 1.944030598 -1.962158212
H 4.841375077 -0.674716678 -0.686103185

