10

O -3.935302951 -1.012594985 2.501554021
C -2.871867342 0.887000518 0.972458695
C -0.212369557 0.455446729 0.347101342
C 1.959290364 0.095492396 -0.209982720
C 4.581945254 -0.402316985 -0.805545347
O 5.885264342 0.986556146 -2.042130722
H -3.776630283 -2.605621334 1.650291475
H -3.028963827 2.651518548 2.028477281
H -3.925161056 1.134954582 -0.795708264
H 5.323795057 -2.190435597 -0.024740918

