14

C -3.636712240 -0.022774412 0.151390306
C -0.842483653 -0.362391003 0.050678335
N 0.436618122 -2.053652912 1.825146586
C 1.319044274 0.511084991 1.704845922
C 3.123868008 0.827377088 -0.525369733
C 0.865360565 0.035044593 -2.192238434
O 0.498261687 0.107563003 -4.417080444
H -4.194239518 1.737783943 -0.764607870
H -4.277506010 -0.000857936 2.108298065
H -4.581652441 -1.576359852 -0.821534206
H 1.627437316 -3.299743515 0.986201861
H 1.199344921 1.685027703 3.372271166
H 4.810362365 -0.359352134 -0.510640811
H 3.652296603 2.771250462 -0.967360743

