14

C -3.652196448 -0.693956339 0.710397901
C -0.747673940 1.406902347 -0.411860744
N -0.377827835 -1.297230372 1.270241341
C 1.276831742 0.822796336 1.500563183
C 3.344240367 0.605835424 -0.493045420
C 1.173934529 0.675299149 -2.437523486
O 1.069562669 0.373467840 -4.667521577
H -4.556885860 -0.208501741 -1.065413643
H -4.289841896 0.536225869 2.213013743
H -4.082029640 -2.665072949 1.160263495
H 0.258336578 -2.697624918 0.125697080
H 1.479351895 1.657204282 3.358061748
H 4.624971124 -1.009980549 -0.415968083
H 4.441092060 2.342913271 -0.673687590

