12

O 2.255866268 3.149624144 0.170165208
C 3.350406883 1.149681350 0.238153906
C 2.510189257 -1.268939622 -0.836728852
C 0.161701332 -2.062389399 -1.381245252
C -2.308337368 -0.847242305 -1.188362305
C -2.863530588 1.596611253 -1.396430335
H -4.813065543 2.209968317 -1.264309661
H -1.429000407 3.013636655 -1.709279030
H -3.856358622 -2.173973229 -0.940987215
H 0.043477855 -4.022883669 -1.988650793
H 4.022174436 -2.640541375 -1.046604178
H 5.210463042 1.026832900 1.196704009

