25

C    -2.53589  -2.26989   0.96277
N    -1.32433  -1.65669   0.46500
C    -1.35608  -0.48695  -0.20668
O    -2.42041   0.11664  -0.43396
C    -0.06846   0.04752  -0.70344
C     1.30545  -0.36008  -0.45605
O     2.29158   0.21534  -0.90159
O     1.40169  -1.46102   0.32087
C     2.71995  -1.96078   0.57670
C     0.16176   1.81068   1.68259
C     0.04692   3.00623   1.19133
C    -0.24900   2.41683  -1.58116
N    -0.16218   1.27049  -1.20554
H    -3.25651  -2.44436   0.14708
H    -3.03145  -1.64520   1.72043
H    -2.27942  -3.23632   1.41487
H    -0.41695  -2.06433   0.67176
H     2.58672  -2.85560   1.19692
H     3.32266  -1.21474   1.11266
H     3.22092  -2.22615  -0.36646
H     1.13170   1.29900   1.76434
H    -0.71578   1.20440   1.96397
H    -0.94783   3.45170   0.91089
H     0.90246   3.54660   0.70553
H    -0.31685   3.28892  -2.03992
25

C    -2.53564  -2.27002   0.96242
N    -1.32403  -1.65644   0.46492
C    -1.35600  -0.48558  -0.20447
O    -2.42050   0.11613  -0.43443
C    -0.06771   0.05691  -0.69087
C     1.30575  -0.35862  -0.45349
O     2.29122   0.21440  -0.90248
O     1.40176  -1.46075   0.32138
C     2.72000  -1.96096   0.57662
C     0.16038   1.80241   1.66878
C     0.04406   2.99928   1.16450
C    -0.24530   2.42111  -1.54918
N    -0.16319   1.27009  -1.21403
H    -3.25639  -2.44437   0.14695
H    -3.03139  -1.64522   1.72032
H    -2.27933  -3.23637   1.41475
H    -0.41683  -2.06392   0.67224
H     2.58673  -2.85566   1.19687
H     3.32272  -1.21482   1.11261
H     3.22083  -2.22618  -0.36654
H     1.13159   1.29933   1.76412
H    -0.71586   1.20480   1.96395
H    -0.94764   3.45194   0.91052
H     0.90211   3.54663   0.70493
H    -0.31585   3.28964  -2.03177
25

C    -2.53539  -2.27016   0.96207
N    -1.32372  -1.65619   0.46483
C    -1.35591  -0.48420  -0.20226
O    -2.42060   0.11561  -0.43490
C    -0.06696   0.06630  -0.67831
C     1.30605  -0.35717  -0.45093
O     2.29087   0.21347  -0.90337
O     1.40183  -1.46048   0.32189
C     2.72005  -1.96114   0.57655
C     0.15900   1.79414   1.65497
C     0.04120   2.99233   1.13766
C    -0.24159   2.42539  -1.51720
N    -0.16420   1.26969  -1.22252
H    -3.25627  -2.44437   0.14681
H    -3.03133  -1.64524   1.72020
H    -2.27925  -3.23641   1.41462
H    -0.41670  -2.06351   0.67272
H     2.58674  -2.85573   1.19682
H     3.32279  -1.21489   1.11257
H     3.22073  -2.22621  -0.36662
H     1.13148   1.29966   1.76390
H    -0.71594   1.20520   1.96393
H    -0.94744   3.45219   0.91014
H     0.90177   3.54667   0.70433
H    -0.31484   3.29036  -2.02362
25

C    -2.53514  -2.27029   0.96173
N    -1.32342  -1.65594   0.46475
C    -1.35583  -0.48283  -0.20006
O    -2.42070   0.11509  -0.43536
C    -0.06620   0.07569  -0.66574
C     1.30635  -0.35571  -0.44837
O     2.29051   0.21253  -0.90426
O     1.40190  -1.46021   0.32240
C     2.72010  -1.96132   0.57647
C     0.15763   1.78588   1.64117
C     0.03834   2.98539   1.11083
C    -0.23789   2.42967  -1.48523
N    -0.16521   1.26929  -1.23101
H    -3.25615  -2.44438   0.14667
H    -3.03127  -1.64527   1.72009
H    -2.27916  -3.23646   1.41450
H    -0.41657  -2.06311   0.67320
H     2.58675  -2.85580   1.19677
H     3.32286  -1.21496   1.11252
H     3.22064  -2.22623  -0.36669
H     1.13136   1.29998   1.76368
H    -0.71602   1.20560   1.96392
H    -0.94725   3.45244   0.90976
H     0.90142   3.54670   0.70373
H    -0.31383   3.29109  -2.01547
25

C    -2.53489  -2.27043   0.96138
N    -1.32312  -1.65569   0.46466
C    -1.35575  -0.48145  -0.19785
O    -2.42079   0.11458  -0.43583
C    -0.06545   0.08508  -0.65317
C     1.30665  -0.35425  -0.44581
O     2.29015   0.21160  -0.90515
O     1.40198  -1.45993   0.32291
C     2.72015  -1.96150   0.57640
C     0.15625   1.77761   1.62736
C     0.03547   2.97844   1.08399
C    -0.23419   2.43395  -1.45325
N    -0.16623   1.26889  -1.23950
H    -3.25603  -2.44438   0.14654
H    -3.03121  -1.64529   1.71997
H    -2.27908  -3.23650   1.41437
H    -0.41644  -2.06270   0.67368
H     2.58676  -2.85586   1.19672
H     3.32292  -1.21503   1.11248
H     3.22055  -2.22626  -0.36677
H     1.13125   1.30031   1.76345
H    -0.71610   1.20600   1.96390
H    -0.94706   3.45269   0.90938
H     0.90107   3.54673   0.70313
H    -0.31282   3.29181  -2.00732
25

C    -2.53464  -2.27057   0.96103
N    -1.32281  -1.65543   0.46458
C    -1.35566  -0.48008  -0.19564
O    -2.42089   0.11406  -0.43630
C    -0.06469   0.09447  -0.64061
C     1.30695  -0.35279  -0.44325
O     2.28980   0.21066  -0.90604
O     1.40205  -1.45966   0.32341
C     2.72020  -1.96168   0.57633
C     0.15487   1.76934   1.61355
C     0.03261   2.97149   1.05716
C    -0.23049   2.43823  -1.42127
N    -0.16724   1.26849  -1.24798
H    -3.25591  -2.44439   0.14640
H    -3.03115  -1.64531   1.71985
H    -2.27899  -3.23654   1.41425
H    -0.41631  -2.06229   0.67416
H     2.58677  -2.85593   1.19667
H     3.32299  -1.21510   1.11243
H     3.22046  -2.22628  -0.36685
H     1.13113   1.30064   1.76323
H    -0.71618   1.20640   1.96388
H    -0.94687   3.45294   0.90900
H     0.90072   3.54676   0.70253
H    -0.31181   3.29253  -1.99917
25

C    -2.53439  -2.27070   0.96069
N    -1.32251  -1.65518   0.46449
C    -1.35558  -0.47870  -0.19343
O    -2.42098   0.11355  -0.43677
C    -0.06394   0.10386  -0.62804
C     1.30725  -0.35134  -0.44069
O     2.28944   0.20973  -0.90693
O     1.40212  -1.45939   0.32392
C     2.72024  -1.96187   0.57625
C     0.15350   1.76107   1.59975
C     0.02975   2.96455   1.03032
C    -0.22679   2.44251  -1.38930
N    -0.16825   1.26809  -1.25647
H    -3.25579  -2.44439   0.14626
H    -3.03109  -1.64534   1.71974
H    -2.27891  -3.23659   1.41412
H    -0.41619  -2.06189   0.67464
H     2.58678  -2.85600   1.19662
H     3.32305  -1.21518   1.11239
H     3.22037  -2.22631  -0.36692
H     1.13102   1.30096   1.76301
H    -0.71626   1.20679   1.96387
H    -0.94668   3.45319   0.90862
H     0.90037   3.54680   0.70194
H    -0.31080   3.29326  -1.99102
25

C    -2.53413  -2.27084   0.96034
N    -1.32221  -1.65493   0.46441
C    -1.35549  -0.47733  -0.19122
O    -2.42108   0.11303  -0.43724
C    -0.06318   0.11325  -0.61547
C     1.30755  -0.34988  -0.43812
O     2.28909   0.20879  -0.90782
O     1.40220  -1.45912   0.32443
C     2.72029  -1.96205   0.57618
C     0.15212   1.75280   1.58594
C     0.02689   2.95760   1.00349
C    -0.22309   2.44679  -1.35732
N    -0.16926   1.26769  -1.26496
H    -3.25566  -2.44440   0.14612
H    -3.03103  -1.64536   1.71962
H    -2.27882  -3.23663   1.41400
H    -0.41606  -2.06148   0.67512
H     2.58679  -2.85607   1.19657
H     3.32312  -1.21525   1.11234
H     3.22028  -2.22634  -0.36700
H     1.13091   1.30129   1.76279
H    -0.71635   1.20719   1.96385
H    -0.94649   3.45344   0.90824
H     0.90002   3.54683   0.70134
H    -0.30980   3.29398  -1.98287
25

C    -2.53388  -2.27097   0.95999
N    -1.32190  -1.65468   0.46432
C    -1.35541  -0.47595  -0.18902
O    -2.42118   0.11252  -0.43771
C    -0.06243   0.12264  -0.60291
C     1.30786  -0.34842  -0.43556
O     2.28873   0.20786  -0.90871
O     1.40227  -1.45884   0.32494
C     2.72034  -1.96223   0.57610
C     0.15075   1.74453   1.57213
C     0.02403   2.95065   0.97665
C    -0.21939   2.45107  -1.32534
N    -0.17027   1.26729  -1.27345
H    -3.25554  -2.44440   0.14599
H    -3.03096  -1.64538   1.71951
H    -2.27874  -3.23667   1.41387
H    -0.41593  -2.06107   0.67560
H     2.58680  -2.85613   1.19653
H     3.32319  -1.21532   1.11230
H     3.22019  -2.22636  -0.36708
H     1.13079   1.30162   1.76257
H    -0.71643   1.20759   1.96383
H    -0.94630   3.45369   0.90786
H     0.89967   3.54686   0.70074
H    -0.30879   3.29470  -1.97472
25

C    -2.53363  -2.27111   0.95965
N    -1.32160  -1.65443   0.46424
C    -1.35533  -0.47458  -0.18681
O    -2.42127   0.11200  -0.43818
C    -0.06167   0.13203  -0.59034
C     1.30816  -0.34697  -0.43300
O     2.28837   0.20692  -0.90960
O     1.40234  -1.45857   0.32545
C     2.72039  -1.96241   0.57603
C     0.14937   1.73626   1.55833
C     0.02117   2.94370   0.94982
C    -0.21569   2.45535  -1.29337
N    -0.17128   1.26689  -1.28194
H    -3.25542  -2.44441   0.14585
H    -3.03090  -1.64541   1.71939
H    -2.27865  -3.23672   1.41375
H    -0.41580  -2.06067   0.67608
H     2.58681  -2.85620   1.19648
H     3.32325  -1.21539   1.11225
H     3.22010  -2.22639  -0.36716
H     1.13068   1.30194   1.76234
H    -0.71651   1.20799   1.96382
H    -0.94610   3.45394   0.90748
H     0.89932   3.54689   0.70014
H    -0.30778   3.29543  -1.96657
25

C    -2.53338  -2.27125   0.95930
N    -1.32130  -1.65417   0.46416
C    -1.35524  -0.47320  -0.18460
O    -2.42137   0.11148  -0.43864
C    -0.06092   0.14142  -0.57777
C     1.30846  -0.34551  -0.43044
O     2.28802   0.20599  -0.91049
O     1.40241  -1.45830   0.32595
C     2.72044  -1.96259   0.57596
C     0.14799   1.72799   1.54452
C     0.01831   2.93676   0.92298
C    -0.21199   2.45963  -1.26139
N    -0.17230   1.26649  -1.29042
H    -3.25530  -2.44441   0.14571
H    -3.03084  -1.64543   1.71928
H    -2.27857  -3.23676   1.41362
H    -0.41567  -2.06026   0.67656
H     2.58682  -2.85627   1.19643
H     3.32332  -1.21546   1.11221
H     3.22000  -2.22641  -0.36723
H     1.13057   1.30227   1.76212
H    -0.71659   1.20839   1.96380
H    -0.94591   3.45419   0.90710
H     0.89897   3.54693   0.69954
H    -0.30677   3.29615  -1.95842
25

C    -2.53313  -2.27138   0.95895
N    -1.32099  -1.65392   0.46407
C    -1.35516  -0.47183  -0.18239
O    -2.42146   0.11097  -0.43911
C    -0.06017   0.15081  -0.56521
C     1.30876  -0.34405  -0.42788
O     2.28766   0.20505  -0.91138
O     1.40249  -1.45803   0.32646
C     2.72049  -1.96277   0.57588
C     0.14662   1.71972   1.53071
C     0.01544   2.92981   0.89615
C    -0.20828   2.46391  -1.22941
N    -0.17331   1.26609  -1.29891
H    -3.25518  -2.44442   0.14557
H    -3.03078  -1.64545   1.71916
H    -2.27848  -3.23681   1.41349
H    -0.41554  -2.05985   0.67704
H     2.58683  -2.85633   1.19638
H     3.32339  -1.21554   1.11216
H     3.21991  -2.22644  -0.36731
H     1.13045   1.30260   1.76190
H    -0.71667   1.20878   1.96378
H    -0.94572   3.45444   0.90672
H     0.89862   3.54696   0.69894
H    -0.30576   3.29687  -1.95027
25

C    -2.53288  -2.27152   0.95861
N    -1.32069  -1.65367   0.46399
C    -1.35508  -0.47045  -0.18018
O    -2.42156   0.11045  -0.43958
C    -0.05941   0.16020  -0.55264
C     1.30906  -0.34259  -0.42532
O     2.28730   0.20412  -0.91227
O     1.40256  -1.45775   0.32697
C     2.72054  -1.96295   0.57581
C     0.14524   1.71145   1.51691
C     0.01258   2.92286   0.86931
C    -0.20458   2.46819  -1.19744
N    -0.17432   1.26569  -1.30740
H    -3.25506  -2.44442   0.14544
H    -3.03072  -1.64547   1.71904
H    -2.27840  -3.23685   1.41337
H    -0.41542  -2.05945   0.67752
H     2.58684  -2.85640   1.19633
H     3.32345  -1.21561   1.11211
H     3.21982  -2.22647  -0.36739
H     1.13034   1.30292   1.76168
H    -0.71675   1.20918   1.96377
H    -0.94553   3.45468   0.90635
H     0.89827   3.54699   0.69835
H    -0.30475   3.29760  -1.94212
25

C    -2.53263  -2.27165   0.95826
N    -1.32039  -1.65342   0.46390
C    -1.35499  -0.46908  -0.17797
O    -2.42165   0.10994  -0.44005
C    -0.05866   0.16959  -0.54007
C     1.30936  -0.34114  -0.42276
O     2.28695   0.20318  -0.91316
O     1.40263  -1.45748   0.32748
C     2.72059  -1.96314   0.57574
C     0.14386   1.70319   1.50310
C     0.00972   2.91592   0.84248
C    -0.20088   2.47247  -1.16546
N    -0.17533   1.26529  -1.31589
H    -3.25493  -2.44443   0.14530
H    -3.03066  -1.64550   1.71893
H    -2.27831  -3.23689   1.41324
H    -0.41529  -2.05904   0.67800
H     2.58685  -2.85647   1.19628
H     3.32352  -1.21568   1.11207
H     3.21973  -2.22649  -0.36747
H     1.13023   1.30325   1.76145
H    -0.71683   1.20958   1.96375
H    -0.94534   3.45493   0.90597
H     0.89792   3.54702   0.69775
H    -0.30375   3.29832  -1.93397
25

C    -2.53238  -2.27179   0.95791
N    -1.32008  -1.65317   0.46382
C    -1.35491  -0.46770  -0.17577
O    -2.42175   0.10942  -0.44052
C    -0.05790   0.17898  -0.52751
C     1.30966  -0.33968  -0.42020
O     2.28659   0.20225  -0.91404
O     1.40271  -1.45721   0.32799
C     2.72064  -1.96332   0.57566
C     0.14249   1.69492   1.48929
C     0.00686   2.90897   0.81564
C    -0.19718   2.47675  -1.13348
N    -0.17634   1.26489  -1.32438
H    -3.25481  -2.44443   0.14516
H    -3.03060  -1.64552   1.71881
H    -2.27823  -3.23694   1.41312
H    -0.41516  -2.05863   0.67848
H     2.58686  -2.85653   1.19623
H     3.32359  -1.21575   1.11202
H     3.21964  -2.22652  -0.36754
H     1.13011   1.30358   1.76123
H    -0.71692   1.20998   1.96373
H    -0.94515   3.45518   0.90559
H     0.89758   3.54706   0.69715
H    -0.30274   3.29904  -1.92582
25

C    -2.53213  -2.27193   0.95756
N    -1.31978  -1.65291   0.46373
C    -1.35482  -0.46633  -0.17356
O    -2.42185   0.10891  -0.44099
C    -0.05715   0.18837  -0.51494
C     1.30996  -0.33822  -0.41764
O     2.28624   0.20131  -0.91493
O     1.40278  -1.45694   0.32849
C     2.72068  -1.96350   0.57559
C     0.14111   1.68665   1.47549
C     0.00400   2.90202   0.78881
C    -0.19348   2.48103  -1.10151
N    -0.17736   1.26449  -1.33286
H    -3.25469  -2.44444   0.14503
H    -3.03054  -1.64554   1.71870
H    -2.27814  -3.23698   1.41299
H    -0.41503  -2.05823   0.67896
H     2.58687  -2.85660   1.19619
H     3.32365  -1.21582   1.11198
H     3.21955  -2.22654  -0.36762
H     1.13000   1.30390   1.76101
H    -0.71700   1.21038   1.96371
H    -0.94495   3.45543   0.90521
H     0.89723   3.54709   0.69655
H    -0.30173   3.29977  -1.91767
25

C    -2.53187  -2.27206   0.95722
N    -1.31947  -1.65266   0.46365
C    -1.35474  -0.46495  -0.17135
O    -2.42194   0.10839  -0.44146
C    -0.05639   0.19776  -0.50237
C     1.31026  -0.33677  -0.41508
O     2.28588   0.20038  -0.91582
O     1.40285  -1.45667   0.32900
C     2.72073  -1.96368   0.57551
C     0.13973   1.67838   1.46168
C     0.00114   2.89508   0.76197
C    -0.18978   2.48531  -1.06953
N    -0.17837   1.26409  -1.34135
H    -3.25457  -2.44444   0.14489
H    -3.03048  -1.64557   1.71858
H    -2.27806  -3.23702   1.41287
H    -0.41490  -2.05782   0.67944
H     2.58688  -2.85667   1.19614
H     3.32372  -1.21590   1.11193
H     3.21946  -2.22657  -0.36770
H     1.12988   1.30423   1.76079
H    -0.71708   1.21078   1.96370
H    -0.94476   3.45568   0.90483
H     0.89688   3.54712   0.69595
H    -0.30072   3.30049  -1.90952
25

C    -2.53162  -2.27220   0.95687
N    -1.31917  -1.65241   0.46357
C    -1.35466  -0.46358  -0.16914
O    -2.42204   0.10787  -0.44193
C    -0.05564   0.20715  -0.48981
C     1.31056  -0.33531  -0.41252
O     2.28552   0.19944  -0.91671
O     1.40292  -1.45639   0.32951
C     2.72078  -1.96386   0.57544
C     0.13836   1.67011   1.44787
C    -0.00172   2.88813   0.73513
C    -0.18608   2.48960  -1.03756
N    -0.17938   1.26369  -1.34984
H    -3.25445  -2.44445   0.14475
H    -3.03041  -1.64559   1.71847
H    -2.27797  -3.23707   1.41274
H    -0.41478  -2.05741   0.67992
H     2.58689  -2.85674   1.19609
H     3.32379  -1.21597   1.11189
H     3.21937  -2.22659  -0.36778
H     1.12977   1.30456   1.76057
H    -0.71716   1.21117   1.96368
H    -0.94457   3.45593   0.90445
H     0.89653   3.54715   0.69535
H    -0.29971   3.30121  -1.90137
25

C    -2.53137  -2.27233   0.95652
N    -1.31887  -1.65216   0.46348
C    -1.35457  -0.46220  -0.16693
O    -2.42213   0.10736  -0.44239
C    -0.05488   0.21654  -0.47724
C     1.31086  -0.33385  -0.40996
O     2.28517   0.19851  -0.91760
O     1.40300  -1.45612   0.33002
C     2.72083  -1.96404   0.57537
C     0.13698   1.66184   1.43407
C    -0.00458   2.88118   0.70830
C    -0.18238   2.49388  -1.00558
N    -0.18039   1.26329  -1.35833
H    -3.25433  -2.44445   0.14461
H    -3.03035  -1.64561   1.71835
H    -2.27789  -3.23711   1.41262
H    -0.41465  -2.05701   0.68040
H     2.58690  -2.85680   1.19604
H     3.32385  -1.21604   1.11184
H     3.21927  -2.22662  -0.36785
H     1.12966   1.30488   1.76034
H    -0.71724   1.21157   1.96366
H    -0.94438   3.45618   0.90407
H     0.89618   3.54719   0.69475
H    -0.29870   3.30194  -1.89322
25

C    -2.53112  -2.27247   0.95618
N    -1.31856  -1.65191   0.46340
C    -1.35449  -0.46083  -0.16473
O    -2.42223   0.10684  -0.44286
C    -0.05413   0.22593  -0.46468
C     1.31116  -0.33239  -0.40739
O     2.28481   0.19757  -0.91849
O     1.40307  -1.45585   0.33053
C     2.72088  -1.96422   0.57529
C     0.13560   1.65357   1.42026
C    -0.00745   2.87423   0.68146
C    -0.17867   2.49816  -0.97360
N    -0.18140   1.26289  -1.36682
H    -3.25421  -2.44446   0.14448
H    -3.03029  -1.64564   1.71824
H    -2.27780  -3.23715   1.41249
H    -0.41452  -2.05660   0.68089
H     2.58691  -2.85687   1.19599
H     3.32392  -1.21611   1.11180
H     3.21918  -2.22665  -0.36793
H     1.12954   1.30521   1.76012
H    -0.71732   1.21197   1.96365
H    -0.94419   3.45643   0.90369
H     0.89583   3.54722   0.69416
H    -0.29770   3.30266  -1.88507
25

C    -2.53087  -2.27261   0.95583
N    -1.31826  -1.65165   0.46331
C    -1.35440  -0.45945  -0.16252
O    -2.42233   0.10633  -0.44333
C    -0.05338   0.23532  -0.45211
C     1.31146  -0.33094  -0.40483
O     2.28446   0.19664  -0.91938
O     1.40314  -1.45558   0.33104
C     2.72093  -1.96441   0.57522
C     0.13423   1.64530   1.40645
C    -0.01031   2.86729   0.65463
C    -0.17497   2.50244  -0.94163
N    -0.18241   1.26249  -1.37530
H    -3.25408  -2.44446   0.14434
H    -3.03023  -1.64566   1.71812
H    -2.27772  -3.23720   1.41237
H    -0.41439  -2.05619   0.68137
H     2.58692  -2.85694   1.19594
H     3.32399  -1.21618   1.11175
H     3.21909  -2.22667  -0.36801
H     1.12943   1.30554   1.75990
H    -0.71740   1.21237   1.96363
H    -0.94400   3.45668   0.90331
H     0.89548   3.54725   0.69356
H    -0.29669   3.30338  -1.87692
25

C    -2.53112  -2.27247   0.95618
N    -1.31856  -1.65191   0.46340
C    -1.35449  -0.46083  -0.16473
O    -2.42223   0.10684  -0.44286
C    -0.05413   0.22593  -0.46468
C     1.31116  -0.33239  -0.40739
O     2.28481   0.19757  -0.91849
O     1.40307  -1.45585   0.33053
C     2.72088  -1.96422   0.57529
C     0.13560   1.65357   1.42026
C    -0.00745   2.87423   0.68146
C    -0.17867   2.49816  -0.97360
N    -0.18140   1.26289  -1.36682
H    -3.25421  -2.44446   0.14448
H    -3.03029  -1.64564   1.71824
H    -2.27780  -3.23715   1.41249
H    -0.41452  -2.05660   0.68089
H     2.58691  -2.85687   1.19599
H     3.32392  -1.21611   1.11180
H     3.21918  -2.22665  -0.36793
H     1.12954   1.30521   1.76012
H    -0.71732   1.21197   1.96365
H    -0.94419   3.45643   0.90369
H     0.89583   3.54722   0.69416
H    -0.29770   3.30266  -1.88507
25

C    -2.53137  -2.27233   0.95652
N    -1.31887  -1.65216   0.46348
C    -1.35457  -0.46220  -0.16693
O    -2.42213   0.10736  -0.44239
C    -0.05488   0.21654  -0.47724
C     1.31086  -0.33385  -0.40996
O     2.28517   0.19851  -0.91760
O     1.40300  -1.45612   0.33002
C     2.72083  -1.96404   0.57537
C     0.13698   1.66184   1.43407
C    -0.00458   2.88118   0.70830
C    -0.18238   2.49388  -1.00558
N    -0.18039   1.26329  -1.35833
H    -3.25433  -2.44445   0.14461
H    -3.03035  -1.64561   1.71835
H    -2.27789  -3.23711   1.41262
H    -0.41465  -2.05701   0.68040
H     2.58690  -2.85680   1.19604
H     3.32385  -1.21604   1.11184
H     3.21927  -2.22662  -0.36785
H     1.12966   1.30488   1.76034
H    -0.71724   1.21157   1.96366
H    -0.94438   3.45618   0.90407
H     0.89618   3.54719   0.69475
H    -0.29870   3.30194  -1.89322
25

C    -2.53162  -2.27220   0.95687
N    -1.31917  -1.65241   0.46357
C    -1.35466  -0.46358  -0.16914
O    -2.42204   0.10787  -0.44193
C    -0.05564   0.20715  -0.48981
C     1.31056  -0.33531  -0.41252
O     2.28552   0.19944  -0.91671
O     1.40292  -1.45639   0.32951
C     2.72078  -1.96386   0.57544
C     0.13836   1.67011   1.44787
C    -0.00172   2.88813   0.73513
C    -0.18608   2.48960  -1.03756
N    -0.17938   1.26369  -1.34984
H    -3.25445  -2.44445   0.14475
H    -3.03041  -1.64559   1.71847
H    -2.27797  -3.23707   1.41274
H    -0.41478  -2.05741   0.67992
H     2.58689  -2.85674   1.19609
H     3.32379  -1.21597   1.11189
H     3.21937  -2.22659  -0.36778
H     1.12977   1.30456   1.76057
H    -0.71716   1.21117   1.96368
H    -0.94457   3.45593   0.90445
H     0.89653   3.54715   0.69535
H    -0.29971   3.30121  -1.90137
25

C    -2.53187  -2.27206   0.95722
N    -1.31947  -1.65266   0.46365
C    -1.35474  -0.46495  -0.17135
O    -2.42194   0.10839  -0.44146
C    -0.05639   0.19776  -0.50237
C     1.31026  -0.33677  -0.41508
O     2.28588   0.20038  -0.91582
O     1.40285  -1.45667   0.32900
C     2.72073  -1.96368   0.57551
C     0.13973   1.67838   1.46168
C     0.00114   2.89508   0.76197
C    -0.18978   2.48531  -1.06953
N    -0.17837   1.26409  -1.34135
H    -3.25457  -2.44444   0.14489
H    -3.03048  -1.64557   1.71858
H    -2.27806  -3.23702   1.41287
H    -0.41490  -2.05782   0.67944
H     2.58688  -2.85667   1.19614
H     3.32372  -1.21590   1.11193
H     3.21946  -2.22657  -0.36770
H     1.12988   1.30423   1.76079
H    -0.71708   1.21078   1.96370
H    -0.94476   3.45568   0.90483
H     0.89688   3.54712   0.69595
H    -0.30072   3.30049  -1.90952
25

C    -2.53213  -2.27193   0.95756
N    -1.31978  -1.65291   0.46373
C    -1.35482  -0.46633  -0.17356
O    -2.42185   0.10891  -0.44099
C    -0.05715   0.18837  -0.51494
C     1.30996  -0.33822  -0.41764
O     2.28624   0.20131  -0.91493
O     1.40278  -1.45694   0.32849
C     2.72068  -1.96350   0.57559
C     0.14111   1.68665   1.47549
C     0.00400   2.90202   0.78881
C    -0.19348   2.48103  -1.10151
N    -0.17736   1.26449  -1.33286
H    -3.25469  -2.44444   0.14503
H    -3.03054  -1.64554   1.71870
H    -2.27814  -3.23698   1.41299
H    -0.41503  -2.05823   0.67896
H     2.58687  -2.85660   1.19619
H     3.32365  -1.21582   1.11198
H     3.21955  -2.22654  -0.36762
H     1.13000   1.30390   1.76101
H    -0.71700   1.21038   1.96371
H    -0.94495   3.45543   0.90521
H     0.89723   3.54709   0.69655
H    -0.30173   3.29977  -1.91767
25

C    -2.53238  -2.27179   0.95791
N    -1.32008  -1.65317   0.46382
C    -1.35491  -0.46770  -0.17577
O    -2.42175   0.10942  -0.44052
C    -0.05790   0.17898  -0.52751
C     1.30966  -0.33968  -0.42020
O     2.28659   0.20225  -0.91404
O     1.40271  -1.45721   0.32799
C     2.72064  -1.96332   0.57566
C     0.14249   1.69492   1.48929
C     0.00686   2.90897   0.81564
C    -0.19718   2.47675  -1.13348
N    -0.17634   1.26489  -1.32438
H    -3.25481  -2.44443   0.14516
H    -3.03060  -1.64552   1.71881
H    -2.27823  -3.23694   1.41312
H    -0.41516  -2.05863   0.67848
H     2.58686  -2.85653   1.19623
H     3.32359  -1.21575   1.11202
H     3.21964  -2.22652  -0.36754
H     1.13011   1.30358   1.76123
H    -0.71692   1.20998   1.96373
H    -0.94515   3.45518   0.90559
H     0.89758   3.54706   0.69715
H    -0.30274   3.29904  -1.92582
25

C    -2.53263  -2.27165   0.95826
N    -1.32039  -1.65342   0.46390
C    -1.35499  -0.46908  -0.17797
O    -2.42165   0.10994  -0.44005
C    -0.05866   0.16959  -0.54007
C     1.30936  -0.34114  -0.42276
O     2.28695   0.20318  -0.91316
O     1.40263  -1.45748   0.32748
C     2.72059  -1.96314   0.57574
C     0.14386   1.70319   1.50310
C     0.00972   2.91592   0.84248
C    -0.20088   2.47247  -1.16546
N    -0.17533   1.26529  -1.31589
H    -3.25493  -2.44443   0.14530
H    -3.03066  -1.64550   1.71893
H    -2.27831  -3.23689   1.41324
H    -0.41529  -2.05904   0.67800
H     2.58685  -2.85647   1.19628
H     3.32352  -1.21568   1.11207
H     3.21973  -2.22649  -0.36747
H     1.13023   1.30325   1.76145
H    -0.71683   1.20958   1.96375
H    -0.94534   3.45493   0.90597
H     0.89792   3.54702   0.69775
H    -0.30375   3.29832  -1.93397
25

C    -2.53288  -2.27152   0.95861
N    -1.32069  -1.65367   0.46399
C    -1.35508  -0.47045  -0.18018
O    -2.42156   0.11045  -0.43958
C    -0.05941   0.16020  -0.55264
C     1.30906  -0.34259  -0.42532
O     2.28730   0.20412  -0.91227
O     1.40256  -1.45775   0.32697
C     2.72054  -1.96295   0.57581
C     0.14524   1.71145   1.51691
C     0.01258   2.92286   0.86931
C    -0.20458   2.46819  -1.19744
N    -0.17432   1.26569  -1.30740
H    -3.25506  -2.44442   0.14544
H    -3.03072  -1.64547   1.71904
H    -2.27840  -3.23685   1.41337
H    -0.41542  -2.05945   0.67752
H     2.58684  -2.85640   1.19633
H     3.32345  -1.21561   1.11211
H     3.21982  -2.22647  -0.36739
H     1.13034   1.30292   1.76168
H    -0.71675   1.20918   1.96377
H    -0.94553   3.45468   0.90635
H     0.89827   3.54699   0.69835
H    -0.30475   3.29760  -1.94212
25

C    -2.53313  -2.27138   0.95895
N    -1.32099  -1.65392   0.46407
C    -1.35516  -0.47183  -0.18239
O    -2.42146   0.11097  -0.43911
C    -0.06017   0.15081  -0.56521
C     1.30876  -0.34405  -0.42788
O     2.28766   0.20505  -0.91138
O     1.40249  -1.45803   0.32646
C     2.72049  -1.96277   0.57588
C     0.14662   1.71972   1.53071
C     0.01544   2.92981   0.89615
C    -0.20828   2.46391  -1.22941
N    -0.17331   1.26609  -1.29891
H    -3.25518  -2.44442   0.14557
H    -3.03078  -1.64545   1.71916
H    -2.27848  -3.23681   1.41349
H    -0.41554  -2.05985   0.67704
H     2.58683  -2.85633   1.19638
H     3.32339  -1.21554   1.11216
H     3.21991  -2.22644  -0.36731
H     1.13045   1.30260   1.76190
H    -0.71667   1.20878   1.96378
H    -0.94572   3.45444   0.90672
H     0.89862   3.54696   0.69894
H    -0.30576   3.29687  -1.95027
25

C    -2.53338  -2.27125   0.95930
N    -1.32130  -1.65417   0.46416
C    -1.35524  -0.47320  -0.18460
O    -2.42137   0.11148  -0.43864
C    -0.06092   0.14142  -0.57777
C     1.30846  -0.34551  -0.43044
O     2.28802   0.20599  -0.91049
O     1.40241  -1.45830   0.32595
C     2.72044  -1.96259   0.57596
C     0.14799   1.72799   1.54452
C     0.01831   2.93676   0.92298
C    -0.21199   2.45963  -1.26139
N    -0.17230   1.26649  -1.29042
H    -3.25530  -2.44441   0.14571
H    -3.03084  -1.64543   1.71928
H    -2.27857  -3.23676   1.41362
H    -0.41567  -2.06026   0.67656
H     2.58682  -2.85627   1.19643
H     3.32332  -1.21546   1.11221
H     3.22000  -2.22641  -0.36723
H     1.13057   1.30227   1.76212
H    -0.71659   1.20839   1.96380
H    -0.94591   3.45419   0.90710
H     0.89897   3.54693   0.69954
H    -0.30677   3.29615  -1.95842
25

C    -2.53363  -2.27111   0.95965
N    -1.32160  -1.65443   0.46424
C    -1.35533  -0.47458  -0.18681
O    -2.42127   0.11200  -0.43818
C    -0.06167   0.13203  -0.59034
C     1.30816  -0.34697  -0.43300
O     2.28837   0.20692  -0.90960
O     1.40234  -1.45857   0.32545
C     2.72039  -1.96241   0.57603
C     0.14937   1.73626   1.55833
C     0.02117   2.94370   0.94982
C    -0.21569   2.45535  -1.29337
N    -0.17128   1.26689  -1.28194
H    -3.25542  -2.44441   0.14585
H    -3.03090  -1.64541   1.71939
H    -2.27865  -3.23672   1.41375
H    -0.41580  -2.06067   0.67608
H     2.58681  -2.85620   1.19648
H     3.32325  -1.21539   1.11225
H     3.22010  -2.22639  -0.36716
H     1.13068   1.30194   1.76234
H    -0.71651   1.20799   1.96382
H    -0.94610   3.45394   0.90748
H     0.89932   3.54689   0.70014
H    -0.30778   3.29543  -1.96657
25

C    -2.53388  -2.27097   0.95999
N    -1.32190  -1.65468   0.46432
C    -1.35541  -0.47595  -0.18902
O    -2.42118   0.11252  -0.43771
C    -0.06243   0.12264  -0.60291
C     1.30786  -0.34842  -0.43556
O     2.28873   0.20786  -0.90871
O     1.40227  -1.45884   0.32494
C     2.72034  -1.96223   0.57610
C     0.15075   1.74453   1.57213
C     0.02403   2.95065   0.97665
C    -0.21939   2.45107  -1.32534
N    -0.17027   1.26729  -1.27345
H    -3.25554  -2.44440   0.14599
H    -3.03096  -1.64538   1.71951
H    -2.27874  -3.23667   1.41387
H    -0.41593  -2.06107   0.67560
H     2.58680  -2.85613   1.19653
H     3.32319  -1.21532   1.11230
H     3.22019  -2.22636  -0.36708
H     1.13079   1.30162   1.76257
H    -0.71643   1.20759   1.96383
H    -0.94630   3.45369   0.90786
H     0.89967   3.54686   0.70074
H    -0.30879   3.29470  -1.97472
25

C    -2.53413  -2.27084   0.96034
N    -1.32221  -1.65493   0.46441
C    -1.35549  -0.47733  -0.19122
O    -2.42108   0.11303  -0.43724
C    -0.06318   0.11325  -0.61547
C     1.30755  -0.34988  -0.43812
O     2.28909   0.20879  -0.90782
O     1.40220  -1.45912   0.32443
C     2.72029  -1.96205   0.57618
C     0.15212   1.75280   1.58594
C     0.02689   2.95760   1.00349
C    -0.22309   2.44679  -1.35732
N    -0.16926   1.26769  -1.26496
H    -3.25566  -2.44440   0.14612
H    -3.03103  -1.64536   1.71962
H    -2.27882  -3.23663   1.41400
H    -0.41606  -2.06148   0.67512
H     2.58679  -2.85607   1.19657
H     3.32312  -1.21525   1.11234
H     3.22028  -2.22634  -0.36700
H     1.13091   1.30129   1.76279
H    -0.71635   1.20719   1.96385
H    -0.94649   3.45344   0.90824
H     0.90002   3.54683   0.70134
H    -0.30980   3.29398  -1.98287
25

C    -2.53439  -2.27070   0.96069
N    -1.32251  -1.65518   0.46449
C    -1.35558  -0.47870  -0.19343
O    -2.42098   0.11355  -0.43677
C    -0.06394   0.10386  -0.62804
C     1.30725  -0.35134  -0.44069
O     2.28944   0.20973  -0.90693
O     1.40212  -1.45939   0.32392
C     2.72024  -1.96187   0.57625
C     0.15350   1.76107   1.59975
C     0.02975   2.96455   1.03032
C    -0.22679   2.44251  -1.38930
N    -0.16825   1.26809  -1.25647
H    -3.25579  -2.44439   0.14626
H    -3.03109  -1.64534   1.71974
H    -2.27891  -3.23659   1.41412
H    -0.41619  -2.06189   0.67464
H     2.58678  -2.85600   1.19662
H     3.32305  -1.21518   1.11239
H     3.22037  -2.22631  -0.36692
H     1.13102   1.30096   1.76301
H    -0.71626   1.20679   1.96387
H    -0.94668   3.45319   0.90862
H     0.90037   3.54680   0.70194
H    -0.31080   3.29326  -1.99102
25

C    -2.53464  -2.27057   0.96103
N    -1.32281  -1.65543   0.46458
C    -1.35566  -0.48008  -0.19564
O    -2.42089   0.11406  -0.43630
C    -0.06469   0.09447  -0.64061
C     1.30695  -0.35279  -0.44325
O     2.28980   0.21066  -0.90604
O     1.40205  -1.45966   0.32341
C     2.72020  -1.96168   0.57633
C     0.15487   1.76934   1.61355
C     0.03261   2.97149   1.05716
C    -0.23049   2.43823  -1.42127
N    -0.16724   1.26849  -1.24798
H    -3.25591  -2.44439   0.14640
H    -3.03115  -1.64531   1.71985
H    -2.27899  -3.23654   1.41425
H    -0.41631  -2.06229   0.67416
H     2.58677  -2.85593   1.19667
H     3.32299  -1.21510   1.11243
H     3.22046  -2.22628  -0.36685
H     1.13113   1.30064   1.76323
H    -0.71618   1.20640   1.96388
H    -0.94687   3.45294   0.90900
H     0.90072   3.54676   0.70253
H    -0.31181   3.29253  -1.99917
25

C    -2.53489  -2.27043   0.96138
N    -1.32312  -1.65569   0.46466
C    -1.35575  -0.48145  -0.19785
O    -2.42079   0.11458  -0.43583
C    -0.06545   0.08508  -0.65317
C     1.30665  -0.35425  -0.44581
O     2.29015   0.21160  -0.90515
O     1.40198  -1.45993   0.32291
C     2.72015  -1.96150   0.57640
C     0.15625   1.77761   1.62736
C     0.03547   2.97844   1.08399
C    -0.23419   2.43395  -1.45325
N    -0.16623   1.26889  -1.23950
H    -3.25603  -2.44438   0.14654
H    -3.03121  -1.64529   1.71997
H    -2.27908  -3.23650   1.41437
H    -0.41644  -2.06270   0.67368
H     2.58676  -2.85586   1.19672
H     3.32292  -1.21503   1.11248
H     3.22055  -2.22626  -0.36677
H     1.13125   1.30031   1.76345
H    -0.71610   1.20600   1.96390
H    -0.94706   3.45269   0.90938
H     0.90107   3.54673   0.70313
H    -0.31282   3.29181  -2.00732
25

C    -2.53514  -2.27029   0.96173
N    -1.32342  -1.65594   0.46475
C    -1.35583  -0.48283  -0.20006
O    -2.42070   0.11509  -0.43536
C    -0.06620   0.07569  -0.66574
C     1.30635  -0.35571  -0.44837
O     2.29051   0.21253  -0.90426
O     1.40190  -1.46021   0.32240
C     2.72010  -1.96132   0.57647
C     0.15763   1.78588   1.64117
C     0.03834   2.98539   1.11083
C    -0.23789   2.42967  -1.48523
N    -0.16521   1.26929  -1.23101
H    -3.25615  -2.44438   0.14667
H    -3.03127  -1.64527   1.72009
H    -2.27916  -3.23646   1.41450
H    -0.41657  -2.06311   0.67320
H     2.58675  -2.85580   1.19677
H     3.32286  -1.21496   1.11252
H     3.22064  -2.22623  -0.36669
H     1.13136   1.29998   1.76368
H    -0.71602   1.20560   1.96392
H    -0.94725   3.45244   0.90976
H     0.90142   3.54670   0.70373
H    -0.31383   3.29109  -2.01547
25

C    -2.53539  -2.27016   0.96207
N    -1.32372  -1.65619   0.46483
C    -1.35591  -0.48420  -0.20226
O    -2.42060   0.11561  -0.43490
C    -0.06696   0.06630  -0.67831
C     1.30605  -0.35717  -0.45093
O     2.29087   0.21347  -0.90337
O     1.40183  -1.46048   0.32189
C     2.72005  -1.96114   0.57655
C     0.15900   1.79414   1.65497
C     0.04120   2.99233   1.13766
C    -0.24159   2.42539  -1.51720
N    -0.16420   1.26969  -1.22252
H    -3.25627  -2.44437   0.14681
H    -3.03133  -1.64524   1.72020
H    -2.27925  -3.23641   1.41462
H    -0.41670  -2.06351   0.67272
H     2.58674  -2.85573   1.19682
H     3.32279  -1.21489   1.11257
H     3.22073  -2.22621  -0.36662
H     1.13148   1.29966   1.76390
H    -0.71594   1.20520   1.96393
H    -0.94744   3.45219   0.91014
H     0.90177   3.54667   0.70433
H    -0.31484   3.29036  -2.02362
25

C    -2.53564  -2.27002   0.96242
N    -1.32403  -1.65644   0.46492
C    -1.35600  -0.48558  -0.20447
O    -2.42050   0.11613  -0.43443
C    -0.06771   0.05691  -0.69087
C     1.30575  -0.35862  -0.45349
O     2.29122   0.21440  -0.90248
O     1.40176  -1.46075   0.32138
C     2.72000  -1.96096   0.57662
C     0.16038   1.80241   1.66878
C     0.04406   2.99928   1.16450
C    -0.24530   2.42111  -1.54918
N    -0.16319   1.27009  -1.21403
H    -3.25639  -2.44437   0.14695
H    -3.03139  -1.64522   1.72032
H    -2.27933  -3.23637   1.41475
H    -0.41683  -2.06392   0.67224
H     2.58673  -2.85566   1.19687
H     3.32272  -1.21482   1.11261
H     3.22083  -2.22618  -0.36654
H     1.13159   1.29933   1.76412
H    -0.71586   1.20480   1.96395
H    -0.94764   3.45194   0.91052
H     0.90211   3.54663   0.70493
H    -0.31585   3.28964  -2.03177
