11

C -3.829201614 -0.201475702 0.538851871
C -2.022931294 1.292820941 -0.533585185
C 0.206863595 1.933378552 -1.059335225
C 1.782460243 -0.038565758 0.167306789
O 0.864926306 -1.856315408 1.408208204
N 4.269974639 0.147360598 -0.069901536
H -4.935415729 -1.440289631 -0.668341253
H -4.789021178 0.467917675 2.225945327
H -1.462661211 -1.470269985 1.262168507
H 5.422684085 -1.134843957 0.725120757
H 4.958753827 1.610587441 -1.062328533

