12

C -1.748898046 -1.877805411 -0.529875672
C 0.058257252 0.248824340 -0.069067714
C -0.442176317 2.818871768 -1.080489802
O -0.559670190 1.922102651 2.065853721
C 2.788632521 -0.458230995 0.212953615
O 3.741417316 -2.204786215 -0.872711731
H -1.729962801 -3.236117570 1.023360623
H -3.651626204 -1.144184495 -0.827691879
H -1.158798900 -2.865957582 -2.238536837
H 1.355221153 3.872396010 -1.026079409
H -2.367219419 1.894229455 2.291116974
H 3.899436630 0.864356477 1.400697526

