11

C -2.659307413 -0.785899036 -0.133059396
C -0.012814894 0.210588963 0.032131788
C 0.613317832 2.688222396 1.065434619
O 2.722498910 3.546989083 1.237218453
C 3.650732742 -2.059210577 -1.780240136
N 1.864474414 -1.106679498 -0.798853676
H -2.919021092 -2.486801704 1.006000653
H -3.177823979 -1.234490028 -2.080227204
H -3.974671143 0.641512263 0.559105936
H -1.055763473 3.781027865 1.704762623
H 4.977496887 -3.367748276 -0.929478254

