11

C -2.678998284 -0.714629905 -0.116586256
C -0.003759346 0.212239109 0.043898621
C 0.673320643 2.552875392 1.340943101
O 2.791682218 3.377746893 1.548657677
C 3.599123603 -1.847602731 -2.107626532
N 1.826393144 -1.018561361 -0.985032933
H -3.442303490 -1.148827609 1.751952467
H -2.780217609 -2.423799048 -1.257682542
H -3.904059977 0.703588935 -0.982474168
H -0.968135153 3.569231764 2.155716509
H 4.917307050 -3.243046705 -1.386402881

