15

C 3.903598733 0.826506227 0.287588424
C 1.536792086 -0.613825054 -0.391244891
C -0.344905801 -0.834967343 1.821301712
N -2.337540269 -0.095553435 0.026745067
C -0.475083781 1.035157030 -1.702760779
C -4.155733551 -1.529564564 -0.664609081
H 5.009880046 1.257349214 -1.403272788
H 5.117915708 -0.304697494 1.518039370
H 3.552628063 2.644954962 1.272600248
H -0.770783986 -2.605744714 2.785242428
H -0.111031520 0.694071971 3.217826080
H -0.276225708 3.055138046 -1.230804741
H -1.009315479 0.824870764 -3.681769244
H -5.001488113 -1.270961572 -2.509271852
H -4.881086499 -2.932582107 0.635379421

