16

C -3.780071078 1.380999833 2.036895406
C -3.066119736 -1.162806820 1.126042199
N -1.236199399 -0.178867208 -2.464843125
C 0.910529365 -0.355477005 -1.305713692
O 0.936737618 -0.977528698 0.989413941
O 3.077192189 0.138386269 -2.538984299
C 5.340056302 -0.136432103 -1.118933465
H -4.504821430 2.573425162 0.531976953
H -5.268137162 1.095845509 3.455279994
H -2.204566440 2.309828059 2.975564834
H -2.369254560 -2.468335811 2.529423664
H -4.277656923 -2.032153535 -0.259798433
H -1.197680412 0.337335483 -4.304607895
H 6.869347423 0.346219955 -2.405666030
H 5.351563676 1.131414558 0.505753714
H 5.559370055 -2.075237363 -0.454324572

