13

C 2.919553484 1.173343083 0.364891772
C 0.814666658 -0.076766382 -1.132467815
C -0.520418291 -2.232065149 0.215107827
N -2.876120567 -1.130846997 1.085757905
C -3.229001523 0.968600309 -0.090613180
O -1.268899579 1.739893274 -1.477734290
H 3.612672656 2.864020613 -0.591646510
H 2.254091872 1.693994491 2.247642841
H 4.486775358 -0.152390311 0.574248746
H 1.474994546 -0.544209641 -3.032087866
H -3.270815720 -3.035004960 0.302386302
H 0.457059989 -3.272552397 1.685794289
H -4.946580986 2.064682053 -0.143908219

