16

C 2.990873317 -0.899889697 1.224407300
C 0.558672036 -0.184228247 -0.092648340
C 0.916575903 0.731147207 -2.768059300
C -1.391798994 0.973387987 1.718218588
C -3.806088128 1.300844208 0.288363835
N -4.022595297 -0.924758625 -0.638916970
C -1.688373765 -1.692010335 0.735705529
H 2.647429464 -1.565949238 3.147046671
H 4.262931535 0.722357638 1.327071264
H 3.957468551 -2.400951239 0.189470593
H 2.052923175 2.453984834 -2.789605145
H 1.912116563 -0.700253927 -3.872948112
H -0.896126534 1.629441749 3.587036102
H -5.026752598 2.907246605 -0.107009635
H -0.876161124 1.112999063 -3.701599936
H -1.588652577 -3.459601741 1.754249901

