16

C 2.934959363 -1.100281225 1.533325025
C 0.798456909 -0.061653335 -0.054982545
C 1.135367808 0.884480190 -2.673572578
C -0.926243931 1.898762757 1.014396593
C -3.367721877 0.953153366 0.498969201
N -3.424468141 -0.713999549 -1.637919174
C -1.707113215 -1.606089307 0.133919354
H 2.294833800 -1.699729715 3.411119589
H 4.411756443 0.316800698 1.780270712
H 3.780669667 -2.725773994 0.581258496
H 2.217256669 2.618642435 -2.800455480
H 1.599662027 -0.498991273 -4.128508626
H -0.521205835 3.265320075 2.495128083
H -5.095307289 1.447525941 1.466232736
H -2.109837928 0.249831337 -2.965854326
H -2.021255315 -3.225868659 1.346510404

