15

C -2.422481285 -0.493126886 2.014729221
C -0.422361367 -0.834368943 -0.028861296
C -1.546365325 -0.571401156 -2.667942781
N 1.592618905 0.991969664 0.319692792
C 3.978085066 0.621640092 0.680406190
O 5.091436601 2.760102892 0.873578530
H -3.939882060 -1.871645981 1.784550412
H -3.243998597 1.396972025 1.900663028
H -1.605307886 -0.724481387 3.892683864
H 0.398068881 -2.729227299 0.156135711
H -0.108451874 -0.871180260 -4.113959738
H -2.330940722 1.320480164 -2.923349510
H -3.058785482 -1.944226714 -2.958547284
H 2.687124409 3.261353445 0.508285626
H 4.965544917 -1.179915135 0.811027613

