10

C -3.390950372 0.140546472 0.888311855
O -0.901791404 -0.038792090 1.979553916
C 1.037952559 -0.069865594 0.466231302
O 0.711854011 0.049062487 -1.878728637
C 4.786580710 -0.215462378 -0.288952239
O 6.508365362 -0.349562937 1.005755462
H -4.691871586 0.159029486 2.476565776
H -3.558454391 1.873875707 -0.208895504
H -3.750708872 -1.481002155 -0.327408355
H 3.033100079 -0.050144941 -2.192127904

