8

N 1.974335928 -0.792121734 -0.272344154
C -0.347215954 0.316071245 -0.561848175
O -0.140209345 2.850190482 -0.440468212
N -2.499852417 -0.696593679 -0.839434921
H 2.157144991 -2.590056000 -0.842136473
H 3.487152455 0.323699276 -0.535063442
H -2.412650098 -2.607016443 -0.880606421
H -1.839959110 3.488707945 -0.572817940

