8

N 2.123867727 -0.814487550 -0.425761097
C -0.032750806 0.521348698 -0.568267574
O -0.066803028 2.951528652 -0.488813435
N -2.384646190 -0.235496706 -0.762041452
H 2.134458565 -2.670683735 -0.790725982
H 3.760740294 0.136070504 -0.498555502
H -2.980530940 -2.041368369 -0.748645637
H -2.400982438 2.259593451 -0.647838159

