10

C 2.431912436 1.473223570 -2.981343126
O 0.604016374 -0.469813731 -2.987317476
C 0.592765889 -1.970057475 -0.919451027
C -1.084519379 -3.795807167 -0.586210240
H -2.546940840 -4.163426400 -1.967325630
H -0.998407583 -4.950838502 1.094034660
H 2.070348321 -1.584086168 0.459172476
H 4.344715896 0.702554196 -2.813610222
H 2.263098477 2.457859868 -4.778382492
H 2.096412916 2.815137310 -1.443072064

