16

C 4.842122142 0.033435548 0.149555798
C 2.311415221 0.464346905 -1.129928364
C 0.054996359 -0.146800653 0.525171992
O 0.282539699 -0.648947296 2.735996222
C -2.505178856 -0.085096068 -0.758874554
C -4.717608654 -0.256574787 1.058903895
H 6.391048632 0.554258449 -1.106825744
H 4.990694262 1.149221352 1.873893924
H 5.074264641 -1.944654983 0.679094909
H 2.148123968 -0.632486761 -2.877143287
H 2.104851394 2.441828207 -1.711876232
H -2.533634598 -1.657941257 -2.106913142
H -2.606054667 1.625845543 -1.917771928
H -4.715918729 1.331331065 2.372587659
H -6.505744123 -0.247503440 0.033392179
H -4.615916671 -1.980261826 2.180736635

