16

C 4.686675142 0.771574496 -0.042489812
C 2.342848037 -0.376465380 -1.281856864
C 0.068840909 -0.481901553 0.132627990
O 0.306293405 -2.091065766 1.938491773
C -2.372322833 0.848832888 -0.314882683
C -4.703993801 -0.480792511 0.714677640
H 6.398215041 -0.032128103 -0.863286817
H 4.773612994 2.822211783 -0.307003413
H 4.742191762 0.393494194 1.983973154
H 2.144352207 -2.534878057 0.527751449
H 2.167116131 0.098884379 -3.275789914
H -2.520219564 1.197441551 -2.345849905
H -2.153102962 2.724823047 0.540105288
H -4.524663554 -0.817324596 2.737818561
H -6.390330291 0.658930757 0.388873360
H -4.974095758 -2.307234297 -0.202833791

