12

O 5.772132864 0.176838643 0.607392653
C 3.658724091 -0.115214523 0.894922268
C 0.311491551 1.584501038 -0.516631677
C -0.965316910 -0.550941110 -1.359978161
C -2.847765208 0.016364537 0.724658096
O -1.214975526 2.071453319 1.548312934
H 2.026253451 -2.769636314 0.766036805
H 1.347980932 3.102030220 -1.411699851
H 0.638411865 -2.575752190 -0.216883659
H -1.266243928 -1.255525968 -3.251217616
H -3.134327794 -1.382508515 2.211414297
H -4.652447080 0.771026665 0.073355672

