9

C 2.874102850 -0.278611412 -0.784159524
N 1.413958981 2.029386428 -0.866325421
C -0.290328621 2.634229047 0.936924455
O -0.728267907 1.385295275 2.799191933
H -1.257943268 4.442686347 0.543678174
H 1.538309007 3.158135622 -2.385246027
H 4.698264322 0.017421933 -1.691858118
H 3.177767193 -0.794158330 1.183631394
H 1.902157782 -1.842530158 -1.719870605

