10

O -3.397531475 0.760390549 2.370759481
C -1.402896317 0.807450285 0.937469074
C 0.515774082 2.079577932 0.127177661
C 2.159336941 -0.152187185 0.141742347
N 1.685487700 -2.268980741 -1.211559411
N -0.517661049 -3.112187876 -1.120243272
H -3.461716004 2.226937226 3.461490427
H 1.064735307 4.018722776 -0.246661661
H 4.050105552 -0.005262793 0.922126785
H -0.743582758 -4.324662991 -2.621094109

