13

C -2.810395930 -0.168941950 -0.123744237
C -0.754078467 -0.834655973 1.440090549
N 1.119234706 -2.311582084 0.087664111
C 2.391074793 -0.068357422 -0.924535165
C 0.308620943 1.847754495 -0.148404142
O 0.416677524 3.999861627 0.701463465
H -3.344680503 -1.369709683 -1.700484566
H -1.286934520 1.548407231 -1.884190682
H -4.186134879 1.177239963 0.572315500
H -0.757480617 -0.630778259 3.472993360
H 2.228294200 -3.382069604 1.206124861
H 2.850700160 -0.128661455 -2.934125163
H 4.059131905 0.484461244 0.156395227

