12

O -3.217981113 1.693109929 -1.226025964
C -3.629858241 -0.807214863 -0.575460836
C -0.856672454 -1.043645661 -0.234025932
N 0.150761235 0.283180127 -2.362866190
N 2.270632475 1.061783479 -1.565715875
C 2.800400923 0.267620425 1.056941434
N 0.602260006 -1.189536127 1.671858485
H 3.003483837 1.909199885 2.301244885
H -4.440472344 -1.990022602 -2.074213926
H -4.650408841 -1.087413022 1.199835682
H 3.424939345 2.014440584 -2.743088478
H 4.542784799 -0.842291752 1.099531325

