10

N 3.375161974 -0.225592935 0.308385653
C 0.803943955 0.168385898 0.146063168
N -0.829569057 -1.559270757 0.237186896
C -2.432966790 -3.148168790 1.000923696
N -4.083021010 3.898281686 -0.221267862
N -2.076168299 3.254037295 -0.149436178
N 0.196487826 2.751071380 -0.118107354
H 3.913526749 -2.038934610 0.131553681
H 4.429411833 1.001227319 -0.693310714
H -3.287781851 -4.122770208 -0.640783452

