10

N 3.480752595 -0.054883448 0.411489942
C 0.980946362 0.131612735 -0.178602929
N -0.629610201 -1.659282433 0.089250518
C -2.928113320 -1.989068800 0.692075854
N -3.915955217 2.272486164 0.673709417
N -2.029920049 2.802216440 -0.194100724
N 0.165592127 2.482509248 -1.113132421
H 4.157621142 -1.807538798 0.684217087
H 4.627432851 1.147446805 -0.512396102
H -3.899719068 -3.347231671 -0.551306867

