13

C -4.638113470 0.273076971 -0.231594214
C -2.351873010 0.286143048 -1.911083979
C -0.031330450 -0.020963356 -1.140424337
C 2.259444087 -0.289027677 -0.371688682
C 4.606789540 0.650368313 0.684834707
N 4.208772702 -2.051689921 0.060093007
H -5.641545457 2.074169612 -0.354445347
H -4.117992999 -0.050904781 1.733815593
H -5.962144958 -1.202286733 -0.810210797
H -2.678227786 0.576850956 -3.920607175
H 4.611679093 1.215216239 2.656968707
H 5.969186720 1.605115361 -0.509624951
H 3.889469421 -3.127138331 1.613515874

