13

C -3.351819983 0.265455196 -0.155190886
N -0.627902625 0.349929052 0.101667908
C 0.827717182 -1.569367185 0.924705259
C 3.433800516 -0.725855275 0.537916532
C 3.492857991 1.733966639 -0.577825034
C 0.947251506 2.255416797 -0.765019584
H -4.177009033 -0.811734937 1.392754875
H -3.911579689 -0.587659301 -1.948016938
H -4.083415792 2.186688705 -0.077021627
H 0.074061768 -3.195213390 1.904017613
H 5.012012017 -1.873195197 1.162812300
H 2.235674507 -2.277357330 -0.974904927
H 0.023740195 3.918303542 -1.528257667

