15

C 3.487331601 -0.615244163 -0.052243916
C 1.203970857 0.059282371 -1.689880066
C -1.213805143 -0.119940728 -0.264882420
N -2.544970611 1.829660613 0.547682542
O -1.161690219 3.963928882 1.311016151
C -2.667812674 -2.233880722 0.521269008
H 3.666432492 0.700714019 1.524365909
H 3.299932922 -2.518594098 0.718504543
H 5.224245551 -0.532482057 -1.159204530
H 1.411906266 1.958765946 -2.466110998
H 1.071232865 -1.267450745 -3.270802076
H -2.294104914 5.348807510 0.999817016
H -2.813498539 -3.916669156 -0.647557459
H -2.554304441 -2.620580443 2.535554106
H -4.084768345 0.165658570 1.320721198

