16

C 3.854165141 -0.270006072 -0.851390405
C 1.894136783 1.111787503 0.739181340
C -0.729403822 0.891228383 -0.366633778
C -1.918796670 -1.764300032 -0.369655563
C -4.687968092 0.783100238 0.461330562
O -2.545464076 2.172699459 1.121963225
H 3.422723017 -2.284336372 -1.009826347
H 3.947627443 0.503186049 -2.763414372
H 5.730173650 -0.106760342 -0.015793084
H 1.855579756 0.366102538 2.666039487
H 2.361165379 3.118301726 0.883391349
H -0.764140219 1.651862215 -2.304105420
H -1.181951806 -2.999098954 1.114405700
H -2.066173141 -2.746678296 -2.165515344
H -4.072270925 -1.560206757 0.707294158
H -5.012580824 1.008145436 -1.599604277

