24

C     4.12693  -0.44515  -0.20087
O     2.81736   0.05013   0.06382
C     1.80968  -0.56002  -0.54549
O     1.84042  -1.52431  -1.26544
C     0.63176   0.20878  -0.17006
N    -0.24453   1.02626  -0.07560
N    -1.25441   1.75831  -0.10528
C    -1.34560   2.87250   0.59435
N    -1.60524   3.88439   1.12362
C    -2.36105  -1.13177  -0.43958
C    -3.24636  -0.87602   0.76568
C    -1.31317  -1.93448  -0.46705
C    -0.70649  -2.65375   0.72118
H     4.30097  -0.35257  -1.27370
H     4.16702  -1.46997   0.13073
H     4.74049   0.22303   0.37863
H    -2.59733  -0.53198  -1.34766
H    -3.95582  -1.71308   0.78672
H    -2.68578  -0.89540   1.71211
H    -3.80561   0.05364   0.69680
H    -0.65667  -1.90010  -1.38817
H     0.38649  -2.83938   0.62010
H    -1.21147  -3.59400   0.74891
H    -0.85549  -2.13125   1.68792
24

C     4.11973  -0.44250  -0.20086
O     2.80740   0.05107   0.06285
C     1.80212  -0.56361  -0.54587
O     1.84192  -1.52779  -1.26599
C     0.61277   0.18920  -0.17300
N    -0.23165   1.02975  -0.07252
N    -1.25289   1.74884  -0.10051
C    -1.34683   2.86755   0.59217
N    -1.60591   3.88046   1.11974
C    -2.35337  -1.11837  -0.43691
C    -3.24369  -0.87663   0.76395
C    -1.29554  -1.91416  -0.46266
C    -0.70378  -2.64904   0.72040
H     4.29924  -0.35188  -1.27363
H     4.16545  -1.46912   0.13085
H     4.73802   0.22414   0.37871
H    -2.59556  -0.52891  -1.34711
H    -3.95222  -1.71567   0.78357
H    -2.68616  -0.89586   1.71218
H    -3.80758   0.05159   0.69649
H    -0.65518  -1.89767  -1.38827
H     0.38659  -2.84099   0.62041
H    -1.21398  -3.59064   0.74512
H    -0.85441  -2.13167   1.68854
24

C     4.11252  -0.43985  -0.20085
O     2.79743   0.05202   0.06189
C     1.79455  -0.56719  -0.54625
O     1.84342  -1.53126  -1.26654
C     0.59379   0.16963  -0.17595
N    -0.21878   1.03325  -0.06943
N    -1.25136   1.73936  -0.09574
C    -1.34806   2.86260   0.59000
N    -1.60659   3.87653   1.11585
C    -2.34570  -1.10497  -0.43425
C    -3.24102  -0.87724   0.76221
C    -1.27791  -1.89384  -0.45826
C    -0.70107  -2.64433   0.71963
H     4.29750  -0.35118  -1.27356
H     4.16388  -1.46828   0.13098
H     4.73556   0.22525   0.37879
H    -2.59379  -0.52585  -1.34655
H    -3.94862  -1.71826   0.78042
H    -2.68655  -0.89631   1.71225
H    -3.80955   0.04954   0.69618
H    -0.65370  -1.89524  -1.38838
H     0.38670  -2.84259   0.62073
H    -1.21649  -3.58728   0.74133
H    -0.85334  -2.13208   1.68915
24

C     4.10532  -0.43720  -0.20084
O     2.78746   0.05296   0.06092
C     1.78699  -0.57078  -0.54662
O     1.84492  -1.53474  -1.26708
C     0.57481   0.15005  -0.17890
N    -0.20591   1.03674  -0.06635
N    -1.24984   1.72989  -0.09097
C    -1.34929   2.85764   0.58783
N    -1.60726   3.87260   1.11197
C    -2.33803  -1.09158  -0.43158
C    -3.23835  -0.87785   0.76047
C    -1.26028  -1.87352  -0.45386
C    -0.69835  -2.63962   0.71885
H     4.29577  -0.35048  -1.27349
H     4.16232  -1.46743   0.13111
H     4.73310   0.22636   0.37887
H    -2.59203  -0.52278  -1.34600
H    -3.94501  -1.72085   0.77727
H    -2.68693  -0.89677   1.71232
H    -3.81151   0.04749   0.69587
H    -0.65221  -1.89281  -1.38848
H     0.38680  -2.84420   0.62105
H    -1.21900  -3.58391   0.73754
H    -0.85227  -2.13249   1.68976
24

C     4.09812  -0.43455  -0.20083
O     2.77750   0.05390   0.05995
C     1.77943  -0.57436  -0.54700
O     1.84642  -1.53821  -1.26763
C     0.55582   0.13048  -0.18185
N    -0.19303   1.04023  -0.06327
N    -1.24832   1.72042  -0.08620
C    -1.35053   2.85269   0.58565
N    -1.60794   3.86866   1.10809
C    -2.33036  -1.07818  -0.42891
C    -3.23568  -0.87846   0.75874
C    -1.24264  -1.85320  -0.44946
C    -0.69564  -2.63491   0.71807
H     4.29404  -0.34979  -1.27343
H     4.16075  -1.46659   0.13124
H     4.73063   0.22748   0.37895
H    -2.59026  -0.51972  -1.34544
H    -3.94141  -1.72344   0.77412
H    -2.68732  -0.89722   1.71238
H    -3.81348   0.04544   0.69556
H    -0.65073  -1.89038  -1.38859
H     0.38690  -2.84581   0.62136
H    -1.22151  -3.58055   0.73375
H    -0.85119  -2.13290   1.69037
24

C     4.09091  -0.43190  -0.20081
O     2.76753   0.05485   0.05898
C     1.77186  -0.57795  -0.54738
O     1.84792  -1.54169  -1.26817
C     0.53684   0.11090  -0.18479
N    -0.18016   1.04373  -0.06019
N    -1.24679   1.71094  -0.08142
C    -1.35176   2.84774   0.58348
N    -1.60861   3.86473   1.10420
C    -2.32269  -1.06478  -0.42625
C    -3.23301  -0.87907   0.75700
C    -1.22501  -1.83288  -0.44506
C    -0.69293  -2.63020   0.71730
H     4.29231  -0.34909  -1.27336
H     4.15919  -1.46574   0.13137
H     4.72817   0.22859   0.37903
H    -2.58849  -0.51666  -1.34489
H    -3.93781  -1.72603   0.77097
H    -2.68770  -0.89767   1.71245
H    -3.81545   0.04338   0.69525
H    -0.64924  -1.88795  -1.38870
H     0.38700  -2.84741   0.62168
H    -1.22402  -3.57719   0.72996
H    -0.85012  -2.13331   1.69099
24

C     4.08371  -0.42925  -0.20080
O     2.75756   0.05579   0.05801
C     1.76430  -0.58154  -0.54776
O     1.84942  -1.54517  -1.26872
C     0.51785   0.09132  -0.18774
N    -0.16728   1.04722  -0.05710
N    -1.24527   1.70147  -0.07665
C    -1.35299   2.84279   0.58131
N    -1.60929   3.86080   1.10032
C    -2.31501  -1.05139  -0.42358
C    -3.23035  -0.87968   0.75526
C    -1.20738  -1.81256  -0.44066
C    -0.69021  -2.62549   0.71652
H     4.29057  -0.34840  -1.27329
H     4.15762  -1.46490   0.13150
H     4.72571   0.22970   0.37911
H    -2.58673  -0.51359  -1.34433
H    -3.93420  -1.72862   0.76782
H    -2.68809  -0.89813   1.71252
H    -3.81742   0.04133   0.69494
H    -0.64775  -1.88552  -1.38880
H     0.38710  -2.84902   0.62199
H    -1.22653  -3.57383   0.72617
H    -0.84905  -2.13372   1.69160
24

C     4.07651  -0.42660  -0.20079
O     2.74760   0.05673   0.05704
C     1.75674  -0.58512  -0.54814
O     1.85092  -1.54864  -1.26926
C     0.49887   0.07175  -0.19069
N    -0.15441   1.05071  -0.05402
N    -1.24375   1.69200  -0.07188
C    -1.35422   2.83783   0.57914
N    -1.60996   3.85686   1.09644
C    -2.30734  -1.03799  -0.42091
C    -3.22768  -0.88029   0.75352
C    -1.18975  -1.79224  -0.43626
C    -0.68750  -2.62078   0.71574
H     4.28884  -0.34770  -1.27322
H     4.15605  -1.46405   0.13163
H     4.72324   0.23081   0.37918
H    -2.58496  -0.51053  -1.34378
H    -3.93060  -1.73121   0.76467
H    -2.68847  -0.89858   1.71259
H    -3.81939   0.03928   0.69463
H    -0.64627  -1.88309  -1.38891
H     0.38721  -2.85063   0.62231
H    -1.22904  -3.57046   0.72238
H    -0.84797  -2.13413   1.69221
24

C     4.06931  -0.42394  -0.20078
O     2.73763   0.05767   0.05607
C     1.74917  -0.58871  -0.54852
O     1.85242  -1.55212  -1.26981
C     0.47988   0.05217  -0.19364
N    -0.14154   1.05421  -0.05094
N    -1.24222   1.68252  -0.06711
C    -1.35546   2.83288   0.57696
N    -1.61063   3.85293   1.09256
C    -2.29967  -1.02459  -0.41825
C    -3.22501  -0.88089   0.75179
C    -1.17212  -1.77191  -0.43186
C    -0.68478  -2.61607   0.71497
H     4.28711  -0.34700  -1.27315
H     4.15449  -1.46320   0.13176
H     4.72078   0.23193   0.37926
H    -2.58319  -0.50747  -1.34323
H    -3.92699  -1.73380   0.76152
H    -2.68886  -0.89903   1.71265
H    -3.82136   0.03723   0.69432
H    -0.64478  -1.88066  -1.38902
H     0.38731  -2.85223   0.62262
H    -1.23155  -3.56710   0.71859
H    -0.84690  -2.13454   1.69283
24

C     4.06210  -0.42129  -0.20077
O     2.72766   0.05862   0.05510
C     1.74161  -0.59230  -0.54890
O     1.85392  -1.55559  -1.27036
C     0.46090   0.03260  -0.19658
N    -0.12866   1.05770  -0.04786
N    -1.24070   1.67305  -0.06234
C    -1.35669   2.82793   0.57479
N    -1.61131   3.84900   1.08867
C    -2.29200  -1.01119  -0.41558
C    -3.22234  -0.88150   0.75005
C    -1.15448  -1.75159  -0.42746
C    -0.68207  -2.61136   0.71419
H     4.28537  -0.34631  -1.27309
H     4.15292  -1.46236   0.13189
H     4.71831   0.23304   0.37934
H    -2.58142  -0.50440  -1.34267
H    -3.92339  -1.73639   0.75838
H    -2.68924  -0.89949   1.71272
H    -3.82333   0.03518   0.69400
H    -0.64330  -1.87822  -1.38912
H     0.38741  -2.85384   0.62294
H    -1.23406  -3.56374   0.71480
H    -0.84583  -2.13495   1.69344
24

C     4.05490  -0.41864  -0.20076
O     2.71770   0.05956   0.05413
C     1.73404  -0.59588  -0.54928
O     1.85542  -1.55907  -1.27090
C     0.44191   0.01302  -0.19953
N    -0.11579   1.06119  -0.04477
N    -1.23917   1.66358  -0.05757
C    -1.35792   2.82298   0.57262
N    -1.61198   3.84506   1.08479
C    -2.28433  -0.99780  -0.41291
C    -3.21967  -0.88211   0.74831
C    -1.13685  -1.73127  -0.42306
C    -0.67936  -2.60665   0.71342
H     4.28364  -0.34561  -1.27302
H     4.15136  -1.46151   0.13202
H     4.71585   0.23415   0.37942
H    -2.57966  -0.50134  -1.34212
H    -3.91979  -1.73898   0.75523
H    -2.68963  -0.89994   1.71279
H    -3.82529   0.03313   0.69369
H    -0.64181  -1.87579  -1.38923
H     0.38751  -2.85545   0.62326
H    -1.23657  -3.56038   0.71101
H    -0.84476  -2.13536   1.69405
24

C     4.04770  -0.41599  -0.20075
O     2.70773   0.06050   0.05316
C     1.72648  -0.59947  -0.54965
O     1.85692  -1.56254  -1.27145
C     0.42293  -0.00656  -0.20248
N    -0.10292   1.06468  -0.04169
N    -1.23765   1.65410  -0.05280
C    -1.35916   2.81802   0.57044
N    -1.61266   3.84113   1.08091
C    -2.27665  -0.98440  -0.41025
C    -3.21700  -0.88272   0.74658
C    -1.11922  -1.71095  -0.41866
C    -0.67664  -2.60194   0.71264
H     4.28191  -0.34492  -1.27295
H     4.14979  -1.46067   0.13215
H     4.71339   0.23526   0.37950
H    -2.57789  -0.49828  -1.34156
H    -3.91618  -1.74157   0.75208
H    -2.69002  -0.90040   1.71286
H    -3.82726   0.03108   0.69338
H    -0.64032  -1.87336  -1.38933
H     0.38761  -2.85705   0.62357
H    -1.23908  -3.55701   0.70721
H    -0.84368  -2.13578   1.69466
24

C     4.04049  -0.41334  -0.20074
O     2.69776   0.06145   0.05220
C     1.71892  -0.60305  -0.55003
O     1.85842  -1.56602  -1.27199
C     0.40394  -0.02613  -0.20543
N    -0.09004   1.06818  -0.03861
N    -1.23613   1.64463  -0.04803
C    -1.36039   2.81307   0.56827
N    -1.61333   3.83720   1.07702
C    -2.26898  -0.97100  -0.40758
C    -3.21433  -0.88333   0.74484
C    -1.10159  -1.69063  -0.41427
C    -0.67393  -2.59723   0.71186
H     4.28017  -0.34422  -1.27288
H     4.14822  -1.45982   0.13227
H     4.71092   0.23638   0.37958
H    -2.57612  -0.49521  -1.34101
H    -3.91258  -1.74416   0.74893
H    -2.69040  -0.90085   1.71292
H    -3.82923   0.02902   0.69307
H    -0.63884  -1.87093  -1.38944
H     0.38771  -2.85866   0.62389
H    -1.24158  -3.55365   0.70342
H    -0.84261  -2.13619   1.69528
24

C     4.03329  -0.41069  -0.20073
O     2.68780   0.06239   0.05123
C     1.71135  -0.60664  -0.55041
O     1.85992  -1.56950  -1.27254
C     0.38496  -0.04571  -0.20837
N    -0.07717   1.07167  -0.03553
N    -1.23460   1.63516  -0.04326
C    -1.36162   2.80812   0.56610
N    -1.61401   3.83327   1.07314
C    -2.26131  -0.95760  -0.40492
C    -3.21166  -0.88394   0.74310
C    -1.08396  -1.67031  -0.40987
C    -0.67121  -2.59252   0.71109
H     4.27844  -0.34353  -1.27282
H     4.14666  -1.45898   0.13240
H     4.70846   0.23749   0.37966
H    -2.57436  -0.49215  -1.34046
H    -3.90898  -1.74674   0.74578
H    -2.69079  -0.90130   1.71299
H    -3.83120   0.02697   0.69276
H    -0.63735  -1.86850  -1.38955
H     0.38782  -2.86027   0.62420
H    -1.24409  -3.55029   0.69963
H    -0.84154  -2.13660   1.69589
24

C     4.02609  -0.40804  -0.20072
O     2.67783   0.06333   0.05026
C     1.70379  -0.61023  -0.55079
O     1.86142  -1.57297  -1.27308
C     0.36598  -0.06528  -0.21132
N    -0.06430   1.07516  -0.03244
N    -1.23308   1.62568  -0.03849
C    -1.36285   2.80317   0.56392
N    -1.61468   3.82933   1.06926
C    -2.25364  -0.94421  -0.40225
C    -3.20899  -0.88455   0.74137
C    -1.06632  -1.64999  -0.40547
C    -0.66850  -2.58781   0.71031
H     4.27671  -0.34283  -1.27275
H     4.14509  -1.45813   0.13253
H     4.70599   0.23860   0.37974
H    -2.57259  -0.48909  -1.33990
H    -3.90537  -1.74933   0.74263
H    -2.69117  -0.90176   1.71306
H    -3.83317   0.02492   0.69245
H    -0.63586  -1.86607  -1.38965
H     0.38792  -2.86187   0.62452
H    -1.24660  -3.54693   0.69584
H    -0.84046  -2.13701   1.69650
24

C     4.01889  -0.40539  -0.20070
O     2.66786   0.06428   0.04929
C     1.69623  -0.61381  -0.55117
O     1.86292  -1.57645  -1.27363
C     0.34699  -0.08486  -0.21427
N    -0.05142   1.07866  -0.02936
N    -1.23156   1.61621  -0.03372
C    -1.36409   2.79821   0.56175
N    -1.61536   3.82540   1.06538
C    -2.24596  -0.93081  -0.39958
C    -3.20632  -0.88516   0.73963
C    -1.04869  -1.62967  -0.40107
C    -0.66579  -2.58310   0.70953
H     4.27497  -0.34213  -1.27268
H     4.14353  -1.45729   0.13266
H     4.70353   0.23971   0.37982
H    -2.57082  -0.48602  -1.33935
H    -3.90177  -1.75192   0.73948
H    -2.69156  -0.90221   1.71313
H    -3.83514   0.02287   0.69214
H    -0.63438  -1.86364  -1.38976
H     0.38802  -2.86348   0.62483
H    -1.24911  -3.54356   0.69205
H    -0.83939  -2.13742   1.69711
24

C     4.01168  -0.40274  -0.20069
O     2.65790   0.06522   0.04832
C     1.68866  -0.61740  -0.55155
O     1.86442  -1.57992  -1.27417
C     0.32801  -0.10444  -0.21722
N    -0.03855   1.08215  -0.02628
N    -1.23003   1.60674  -0.02895
C    -1.36532   2.79326   0.55958
N    -1.61603   3.82147   1.06149
C    -2.23829  -0.91741  -0.39692
C    -3.20365  -0.88577   0.73789
C    -1.03106  -1.60935  -0.39667
C    -0.66307  -2.57839   0.70876
H     4.27324  -0.34144  -1.27261
H     4.14196  -1.45644   0.13279
H     4.70107   0.24083   0.37990
H    -2.56906  -0.48296  -1.33879
H    -3.89816  -1.75451   0.73633
H    -2.69194  -0.90267   1.71319
H    -3.83711   0.02082   0.69183
H    -0.63289  -1.86121  -1.38987
H     0.38812  -2.86509   0.62515
H    -1.25162  -3.54020   0.68826
H    -0.83832  -2.13783   1.69773
24

C     4.00448  -0.40009  -0.20068
O     2.64793   0.06616   0.04735
C     1.68110  -0.62099  -0.55193
O     1.86592  -1.58340  -1.27472
C     0.30902  -0.12401  -0.22016
N    -0.02567   1.08564  -0.02320
N    -1.22851   1.59726  -0.02418
C    -1.36655   2.78831   0.55740
N    -1.61670   3.81753   1.05761
C    -2.23062  -0.90402  -0.39425
C    -3.20098  -0.88638   0.73616
C    -1.01343  -1.58903  -0.39227
C    -0.66036  -2.57368   0.70798
H     4.27151  -0.34074  -1.27254
H     4.14039  -1.45559   0.13292
H     4.69860   0.24194   0.37998
H    -2.56729  -0.47990  -1.33824
H    -3.89456  -1.75710   0.73318
H    -2.69233  -0.90312   1.71326
H    -3.83907   0.01877   0.69152
H    -0.63141  -1.85878  -1.38997
H     0.38822  -2.86669   0.62546
H    -1.25413  -3.53684   0.68447
H    -0.83724  -2.13824   1.69834
24

C     3.99728  -0.39744  -0.20067
O     2.63797   0.06711   0.04638
C     1.67353  -0.62457  -0.55231
O     1.86742  -1.58688  -1.27527
C     0.29004  -0.14359  -0.22311
N    -0.01280   1.08913  -0.02011
N    -1.22698   1.58779  -0.01941
C    -1.36779   2.78336   0.55523
N    -1.61738   3.81360   1.05373
C    -2.22295  -0.89062  -0.39158
C    -3.19831  -0.88699   0.73442
C    -0.99580  -1.56871  -0.38787
C    -0.65764  -2.56897   0.70720
H     4.26978  -0.34005  -1.27248
H     4.13883  -1.45475   0.13305
H     4.69614   0.24305   0.38006
H    -2.56552  -0.47683  -1.33769
H    -3.89096  -1.75969   0.73003
H    -2.69271  -0.90357   1.71333
H    -3.84104   0.01672   0.69121
H    -0.62992  -1.85635  -1.39008
H     0.38833  -2.86830   0.62578
H    -1.25664  -3.53348   0.68068
H    -0.83617  -2.13865   1.69895
24

C     3.99007  -0.39479  -0.20066
O     2.62800   0.06805   0.04541
C     1.66597  -0.62816  -0.55268
O     1.86892  -1.59035  -1.27581
C     0.27105  -0.16316  -0.22606
N     0.00007   1.09263  -0.01703
N    -1.22546   1.57832  -0.01464
C    -1.36902   2.77840   0.55306
N    -1.61805   3.80967   1.04984
C    -2.21528  -0.87722  -0.38892
C    -3.19564  -0.88760   0.73268
C    -0.97816  -1.54839  -0.38347
C    -0.65493  -2.56426   0.70643
H     4.26804  -0.33935  -1.27241
H     4.13726  -1.45390   0.13318
H     4.69368   0.24416   0.38014
H    -2.56376  -0.47377  -1.33713
H    -3.88735  -1.76228   0.72688
H    -2.69310  -0.90403   1.71339
H    -3.84301   0.01467   0.69089
H    -0.62843  -1.85391  -1.39018
H     0.38843  -2.86991   0.62610
H    -1.25915  -3.53011   0.67689
H    -0.83510  -2.13906   1.69956
24

C     3.98287  -0.39214  -0.20065
O     2.61803   0.06899   0.04444
C     1.65841  -0.63174  -0.55306
O     1.87042  -1.59383  -1.27636
C     0.25207  -0.18274  -0.22901
N     0.01295   1.09612  -0.01395
N    -1.22394   1.56884  -0.00987
C    -1.37025   2.77345   0.55089
N    -1.61873   3.80573   1.04596
C    -2.20760  -0.86382  -0.38625
C    -3.19297  -0.88820   0.73095
C    -0.96053  -1.52807  -0.37907
C    -0.65222  -2.55955   0.70565
H     4.26631  -0.33866  -1.27234
H     4.13570  -1.45306   0.13331
H     4.69121   0.24528   0.38022
H    -2.56199  -0.47070  -1.33658
H    -3.88375  -1.76487   0.72373
H    -2.69348  -0.90448   1.71346
H    -3.84498   0.01261   0.69058
H    -0.62695  -1.85148  -1.39029
H     0.38853  -2.87151   0.62641
H    -1.26166  -3.52675   0.67310
H    -0.83402  -2.13947   1.70018
24

C     3.99007  -0.39479  -0.20066
O     2.62800   0.06805   0.04541
C     1.66597  -0.62816  -0.55268
O     1.86892  -1.59035  -1.27581
C     0.27105  -0.16316  -0.22606
N     0.00007   1.09263  -0.01703
N    -1.22546   1.57832  -0.01464
C    -1.36902   2.77840   0.55306
N    -1.61805   3.80967   1.04984
C    -2.21528  -0.87722  -0.38892
C    -3.19564  -0.88760   0.73268
C    -0.97816  -1.54839  -0.38347
C    -0.65493  -2.56426   0.70643
H     4.26804  -0.33935  -1.27241
H     4.13726  -1.45390   0.13318
H     4.69368   0.24416   0.38014
H    -2.56376  -0.47377  -1.33713
H    -3.88735  -1.76228   0.72688
H    -2.69310  -0.90403   1.71339
H    -3.84301   0.01467   0.69089
H    -0.62843  -1.85391  -1.39018
H     0.38843  -2.86991   0.62610
H    -1.25915  -3.53011   0.67689
H    -0.83510  -2.13906   1.69956
24

C     3.99728  -0.39744  -0.20067
O     2.63797   0.06711   0.04638
C     1.67353  -0.62457  -0.55231
O     1.86742  -1.58688  -1.27527
C     0.29004  -0.14359  -0.22311
N    -0.01280   1.08913  -0.02011
N    -1.22698   1.58779  -0.01941
C    -1.36779   2.78336   0.55523
N    -1.61738   3.81360   1.05373
C    -2.22295  -0.89062  -0.39158
C    -3.19831  -0.88699   0.73442
C    -0.99580  -1.56871  -0.38787
C    -0.65764  -2.56897   0.70720
H     4.26978  -0.34005  -1.27248
H     4.13883  -1.45475   0.13305
H     4.69614   0.24305   0.38006
H    -2.56552  -0.47683  -1.33769
H    -3.89096  -1.75969   0.73003
H    -2.69271  -0.90357   1.71333
H    -3.84104   0.01672   0.69121
H    -0.62992  -1.85635  -1.39008
H     0.38833  -2.86830   0.62578
H    -1.25664  -3.53348   0.68068
H    -0.83617  -2.13865   1.69895
24

C     4.00448  -0.40009  -0.20068
O     2.64793   0.06616   0.04735
C     1.68110  -0.62099  -0.55193
O     1.86592  -1.58340  -1.27472
C     0.30902  -0.12401  -0.22016
N    -0.02567   1.08564  -0.02320
N    -1.22851   1.59726  -0.02418
C    -1.36655   2.78831   0.55740
N    -1.61670   3.81753   1.05761
C    -2.23062  -0.90402  -0.39425
C    -3.20098  -0.88638   0.73616
C    -1.01343  -1.58903  -0.39227
C    -0.66036  -2.57368   0.70798
H     4.27151  -0.34074  -1.27254
H     4.14039  -1.45559   0.13292
H     4.69860   0.24194   0.37998
H    -2.56729  -0.47990  -1.33824
H    -3.89456  -1.75710   0.73318
H    -2.69233  -0.90312   1.71326
H    -3.83907   0.01877   0.69152
H    -0.63141  -1.85878  -1.38997
H     0.38822  -2.86669   0.62546
H    -1.25413  -3.53684   0.68447
H    -0.83724  -2.13824   1.69834
24

C     4.01168  -0.40274  -0.20069
O     2.65790   0.06522   0.04832
C     1.68866  -0.61740  -0.55155
O     1.86442  -1.57992  -1.27417
C     0.32801  -0.10444  -0.21722
N    -0.03855   1.08215  -0.02628
N    -1.23003   1.60674  -0.02895
C    -1.36532   2.79326   0.55958
N    -1.61603   3.82147   1.06149
C    -2.23829  -0.91741  -0.39692
C    -3.20365  -0.88577   0.73789
C    -1.03106  -1.60935  -0.39667
C    -0.66307  -2.57839   0.70876
H     4.27324  -0.34144  -1.27261
H     4.14196  -1.45644   0.13279
H     4.70107   0.24083   0.37990
H    -2.56906  -0.48296  -1.33879
H    -3.89816  -1.75451   0.73633
H    -2.69194  -0.90267   1.71319
H    -3.83711   0.02082   0.69183
H    -0.63289  -1.86121  -1.38987
H     0.38812  -2.86509   0.62515
H    -1.25162  -3.54020   0.68826
H    -0.83832  -2.13783   1.69773
24

C     4.01889  -0.40539  -0.20070
O     2.66786   0.06428   0.04929
C     1.69623  -0.61381  -0.55117
O     1.86292  -1.57645  -1.27363
C     0.34699  -0.08486  -0.21427
N    -0.05142   1.07866  -0.02936
N    -1.23156   1.61621  -0.03372
C    -1.36409   2.79821   0.56175
N    -1.61536   3.82540   1.06538
C    -2.24596  -0.93081  -0.39958
C    -3.20632  -0.88516   0.73963
C    -1.04869  -1.62967  -0.40107
C    -0.66579  -2.58310   0.70953
H     4.27497  -0.34213  -1.27268
H     4.14353  -1.45729   0.13266
H     4.70353   0.23971   0.37982
H    -2.57082  -0.48602  -1.33935
H    -3.90177  -1.75192   0.73948
H    -2.69156  -0.90221   1.71313
H    -3.83514   0.02287   0.69214
H    -0.63438  -1.86364  -1.38976
H     0.38802  -2.86348   0.62483
H    -1.24911  -3.54356   0.69205
H    -0.83939  -2.13742   1.69711
24

C     4.02609  -0.40804  -0.20072
O     2.67783   0.06333   0.05026
C     1.70379  -0.61023  -0.55079
O     1.86142  -1.57297  -1.27308
C     0.36598  -0.06528  -0.21132
N    -0.06430   1.07516  -0.03244
N    -1.23308   1.62568  -0.03849
C    -1.36285   2.80317   0.56392
N    -1.61468   3.82933   1.06926
C    -2.25364  -0.94421  -0.40225
C    -3.20899  -0.88455   0.74137
C    -1.06632  -1.64999  -0.40547
C    -0.66850  -2.58781   0.71031
H     4.27671  -0.34283  -1.27275
H     4.14509  -1.45813   0.13253
H     4.70599   0.23860   0.37974
H    -2.57259  -0.48909  -1.33990
H    -3.90537  -1.74933   0.74263
H    -2.69117  -0.90176   1.71306
H    -3.83317   0.02492   0.69245
H    -0.63586  -1.86607  -1.38965
H     0.38792  -2.86187   0.62452
H    -1.24660  -3.54693   0.69584
H    -0.84046  -2.13701   1.69650
24

C     4.03329  -0.41069  -0.20073
O     2.68780   0.06239   0.05123
C     1.71135  -0.60664  -0.55041
O     1.85992  -1.56950  -1.27254
C     0.38496  -0.04571  -0.20837
N    -0.07717   1.07167  -0.03553
N    -1.23460   1.63516  -0.04326
C    -1.36162   2.80812   0.56610
N    -1.61401   3.83327   1.07314
C    -2.26131  -0.95760  -0.40492
C    -3.21166  -0.88394   0.74310
C    -1.08396  -1.67031  -0.40987
C    -0.67121  -2.59252   0.71109
H     4.27844  -0.34353  -1.27282
H     4.14666  -1.45898   0.13240
H     4.70846   0.23749   0.37966
H    -2.57436  -0.49215  -1.34046
H    -3.90898  -1.74674   0.74578
H    -2.69079  -0.90130   1.71299
H    -3.83120   0.02697   0.69276
H    -0.63735  -1.86850  -1.38955
H     0.38782  -2.86027   0.62420
H    -1.24409  -3.55029   0.69963
H    -0.84154  -2.13660   1.69589
24

C     4.04049  -0.41334  -0.20074
O     2.69776   0.06145   0.05220
C     1.71892  -0.60305  -0.55003
O     1.85842  -1.56602  -1.27199
C     0.40394  -0.02613  -0.20543
N    -0.09004   1.06818  -0.03861
N    -1.23613   1.64463  -0.04803
C    -1.36039   2.81307   0.56827
N    -1.61333   3.83720   1.07702
C    -2.26898  -0.97100  -0.40758
C    -3.21433  -0.88333   0.74484
C    -1.10159  -1.69063  -0.41427
C    -0.67393  -2.59723   0.71186
H     4.28017  -0.34422  -1.27288
H     4.14822  -1.45982   0.13227
H     4.71092   0.23638   0.37958
H    -2.57612  -0.49521  -1.34101
H    -3.91258  -1.74416   0.74893
H    -2.69040  -0.90085   1.71292
H    -3.82923   0.02902   0.69307
H    -0.63884  -1.87093  -1.38944
H     0.38771  -2.85866   0.62389
H    -1.24158  -3.55365   0.70342
H    -0.84261  -2.13619   1.69528
24

C     4.04770  -0.41599  -0.20075
O     2.70773   0.06050   0.05316
C     1.72648  -0.59947  -0.54965
O     1.85692  -1.56254  -1.27145
C     0.42293  -0.00656  -0.20248
N    -0.10292   1.06468  -0.04169
N    -1.23765   1.65410  -0.05280
C    -1.35916   2.81802   0.57044
N    -1.61266   3.84113   1.08091
C    -2.27665  -0.98440  -0.41025
C    -3.21700  -0.88272   0.74658
C    -1.11922  -1.71095  -0.41866
C    -0.67664  -2.60194   0.71264
H     4.28191  -0.34492  -1.27295
H     4.14979  -1.46067   0.13215
H     4.71339   0.23526   0.37950
H    -2.57789  -0.49828  -1.34156
H    -3.91618  -1.74157   0.75208
H    -2.69002  -0.90040   1.71286
H    -3.82726   0.03108   0.69338
H    -0.64032  -1.87336  -1.38933
H     0.38761  -2.85705   0.62357
H    -1.23908  -3.55701   0.70721
H    -0.84368  -2.13578   1.69466
24

C     4.05490  -0.41864  -0.20076
O     2.71770   0.05956   0.05413
C     1.73404  -0.59588  -0.54928
O     1.85542  -1.55907  -1.27090
C     0.44191   0.01302  -0.19953
N    -0.11579   1.06119  -0.04477
N    -1.23917   1.66358  -0.05757
C    -1.35792   2.82298   0.57262
N    -1.61198   3.84506   1.08479
C    -2.28433  -0.99780  -0.41291
C    -3.21967  -0.88211   0.74831
C    -1.13685  -1.73127  -0.42306
C    -0.67936  -2.60665   0.71342
H     4.28364  -0.34561  -1.27302
H     4.15136  -1.46151   0.13202
H     4.71585   0.23415   0.37942
H    -2.57966  -0.50134  -1.34212
H    -3.91979  -1.73898   0.75523
H    -2.68963  -0.89994   1.71279
H    -3.82529   0.03313   0.69369
H    -0.64181  -1.87579  -1.38923
H     0.38751  -2.85545   0.62326
H    -1.23657  -3.56038   0.71101
H    -0.84476  -2.13536   1.69405
24

C     4.06210  -0.42129  -0.20077
O     2.72766   0.05862   0.05510
C     1.74161  -0.59230  -0.54890
O     1.85392  -1.55559  -1.27036
C     0.46090   0.03260  -0.19658
N    -0.12866   1.05770  -0.04786
N    -1.24070   1.67305  -0.06234
C    -1.35669   2.82793   0.57479
N    -1.61131   3.84900   1.08867
C    -2.29200  -1.01119  -0.41558
C    -3.22234  -0.88150   0.75005
C    -1.15448  -1.75159  -0.42746
C    -0.68207  -2.61136   0.71419
H     4.28537  -0.34631  -1.27309
H     4.15292  -1.46236   0.13189
H     4.71831   0.23304   0.37934
H    -2.58142  -0.50440  -1.34267
H    -3.92339  -1.73639   0.75838
H    -2.68924  -0.89949   1.71272
H    -3.82333   0.03518   0.69400
H    -0.64330  -1.87822  -1.38912
H     0.38741  -2.85384   0.62294
H    -1.23406  -3.56374   0.71480
H    -0.84583  -2.13495   1.69344
24

C     4.06931  -0.42394  -0.20078
O     2.73763   0.05767   0.05607
C     1.74917  -0.58871  -0.54852
O     1.85242  -1.55212  -1.26981
C     0.47988   0.05217  -0.19364
N    -0.14154   1.05421  -0.05094
N    -1.24222   1.68252  -0.06711
C    -1.35546   2.83288   0.57696
N    -1.61063   3.85293   1.09256
C    -2.29967  -1.02459  -0.41825
C    -3.22501  -0.88089   0.75179
C    -1.17212  -1.77191  -0.43186
C    -0.68478  -2.61607   0.71497
H     4.28711  -0.34700  -1.27315
H     4.15449  -1.46320   0.13176
H     4.72078   0.23193   0.37926
H    -2.58319  -0.50747  -1.34323
H    -3.92699  -1.73380   0.76152
H    -2.68886  -0.89903   1.71265
H    -3.82136   0.03723   0.69432
H    -0.64478  -1.88066  -1.38902
H     0.38731  -2.85223   0.62262
H    -1.23155  -3.56710   0.71859
H    -0.84690  -2.13454   1.69283
24

C     4.07651  -0.42660  -0.20079
O     2.74760   0.05673   0.05704
C     1.75674  -0.58512  -0.54814
O     1.85092  -1.54864  -1.26926
C     0.49887   0.07175  -0.19069
N    -0.15441   1.05071  -0.05402
N    -1.24375   1.69200  -0.07188
C    -1.35422   2.83783   0.57914
N    -1.60996   3.85686   1.09644
C    -2.30734  -1.03799  -0.42091
C    -3.22768  -0.88029   0.75352
C    -1.18975  -1.79224  -0.43626
C    -0.68750  -2.62078   0.71574
H     4.28884  -0.34770  -1.27322
H     4.15605  -1.46405   0.13163
H     4.72324   0.23081   0.37918
H    -2.58496  -0.51053  -1.34378
H    -3.93060  -1.73121   0.76467
H    -2.68847  -0.89858   1.71259
H    -3.81939   0.03928   0.69463
H    -0.64627  -1.88309  -1.38891
H     0.38721  -2.85063   0.62231
H    -1.22904  -3.57046   0.72238
H    -0.84797  -2.13413   1.69221
24

C     4.08371  -0.42925  -0.20080
O     2.75756   0.05579   0.05801
C     1.76430  -0.58154  -0.54776
O     1.84942  -1.54517  -1.26872
C     0.51785   0.09132  -0.18774
N    -0.16728   1.04722  -0.05710
N    -1.24527   1.70147  -0.07665
C    -1.35299   2.84279   0.58131
N    -1.60929   3.86080   1.10032
C    -2.31501  -1.05139  -0.42358
C    -3.23035  -0.87968   0.75526
C    -1.20738  -1.81256  -0.44066
C    -0.69021  -2.62549   0.71652
H     4.29057  -0.34840  -1.27329
H     4.15762  -1.46490   0.13150
H     4.72571   0.22970   0.37911
H    -2.58673  -0.51359  -1.34433
H    -3.93420  -1.72862   0.76782
H    -2.68809  -0.89813   1.71252
H    -3.81742   0.04133   0.69494
H    -0.64775  -1.88552  -1.38880
H     0.38710  -2.84902   0.62199
H    -1.22653  -3.57383   0.72617
H    -0.84905  -2.13372   1.69160
24

C     4.09091  -0.43190  -0.20081
O     2.76753   0.05485   0.05898
C     1.77186  -0.57795  -0.54738
O     1.84792  -1.54169  -1.26817
C     0.53684   0.11090  -0.18479
N    -0.18016   1.04373  -0.06019
N    -1.24679   1.71094  -0.08142
C    -1.35176   2.84774   0.58348
N    -1.60861   3.86473   1.10420
C    -2.32269  -1.06478  -0.42625
C    -3.23301  -0.87907   0.75700
C    -1.22501  -1.83288  -0.44506
C    -0.69293  -2.63020   0.71730
H     4.29231  -0.34909  -1.27336
H     4.15919  -1.46574   0.13137
H     4.72817   0.22859   0.37903
H    -2.58849  -0.51666  -1.34489
H    -3.93781  -1.72603   0.77097
H    -2.68770  -0.89767   1.71245
H    -3.81545   0.04338   0.69525
H    -0.64924  -1.88795  -1.38870
H     0.38700  -2.84741   0.62168
H    -1.22402  -3.57719   0.72996
H    -0.85012  -2.13331   1.69099
24

C     4.09812  -0.43455  -0.20083
O     2.77750   0.05390   0.05995
C     1.77943  -0.57436  -0.54700
O     1.84642  -1.53821  -1.26763
C     0.55582   0.13048  -0.18185
N    -0.19303   1.04023  -0.06327
N    -1.24832   1.72042  -0.08620
C    -1.35053   2.85269   0.58565
N    -1.60794   3.86866   1.10809
C    -2.33036  -1.07818  -0.42891
C    -3.23568  -0.87846   0.75874
C    -1.24264  -1.85320  -0.44946
C    -0.69564  -2.63491   0.71807
H     4.29404  -0.34979  -1.27343
H     4.16075  -1.46659   0.13124
H     4.73063   0.22748   0.37895
H    -2.59026  -0.51972  -1.34544
H    -3.94141  -1.72344   0.77412
H    -2.68732  -0.89722   1.71238
H    -3.81348   0.04544   0.69556
H    -0.65073  -1.89038  -1.38859
H     0.38690  -2.84581   0.62136
H    -1.22151  -3.58055   0.73375
H    -0.85119  -2.13290   1.69037
24

C     4.10532  -0.43720  -0.20084
O     2.78746   0.05296   0.06092
C     1.78699  -0.57078  -0.54662
O     1.84492  -1.53474  -1.26708
C     0.57481   0.15005  -0.17890
N    -0.20591   1.03674  -0.06635
N    -1.24984   1.72989  -0.09097
C    -1.34929   2.85764   0.58783
N    -1.60726   3.87260   1.11197
C    -2.33803  -1.09158  -0.43158
C    -3.23835  -0.87785   0.76047
C    -1.26028  -1.87352  -0.45386
C    -0.69835  -2.63962   0.71885
H     4.29577  -0.35048  -1.27349
H     4.16232  -1.46743   0.13111
H     4.73310   0.22636   0.37887
H    -2.59203  -0.52278  -1.34600
H    -3.94501  -1.72085   0.77727
H    -2.68693  -0.89677   1.71232
H    -3.81151   0.04749   0.69587
H    -0.65221  -1.89281  -1.38848
H     0.38680  -2.84420   0.62105
H    -1.21900  -3.58391   0.73754
H    -0.85227  -2.13249   1.68976
24

C     4.11252  -0.43985  -0.20085
O     2.79743   0.05202   0.06189
C     1.79455  -0.56719  -0.54625
O     1.84342  -1.53126  -1.26654
C     0.59379   0.16963  -0.17595
N    -0.21878   1.03325  -0.06943
N    -1.25136   1.73936  -0.09574
C    -1.34806   2.86260   0.59000
N    -1.60659   3.87653   1.11585
C    -2.34570  -1.10497  -0.43425
C    -3.24102  -0.87724   0.76221
C    -1.27791  -1.89384  -0.45826
C    -0.70107  -2.64433   0.71963
H     4.29750  -0.35118  -1.27356
H     4.16388  -1.46828   0.13098
H     4.73556   0.22525   0.37879
H    -2.59379  -0.52585  -1.34655
H    -3.94862  -1.71826   0.78042
H    -2.68655  -0.89631   1.71225
H    -3.80955   0.04954   0.69618
H    -0.65370  -1.89524  -1.38838
H     0.38670  -2.84259   0.62073
H    -1.21649  -3.58728   0.74133
H    -0.85334  -2.13208   1.68915
24

C     4.11973  -0.44250  -0.20086
O     2.80740   0.05107   0.06285
C     1.80212  -0.56361  -0.54587
O     1.84192  -1.52779  -1.26599
C     0.61277   0.18920  -0.17300
N    -0.23165   1.02975  -0.07252
N    -1.25289   1.74884  -0.10051
C    -1.34683   2.86755   0.59217
N    -1.60591   3.88046   1.11974
C    -2.35337  -1.11837  -0.43691
C    -3.24369  -0.87663   0.76395
C    -1.29554  -1.91416  -0.46266
C    -0.70378  -2.64904   0.72040
H     4.29924  -0.35188  -1.27363
H     4.16545  -1.46912   0.13085
H     4.73802   0.22414   0.37871
H    -2.59556  -0.52891  -1.34711
H    -3.95222  -1.71567   0.78357
H    -2.68616  -0.89586   1.71218
H    -3.80758   0.05159   0.69649
H    -0.65518  -1.89767  -1.38827
H     0.38659  -2.84099   0.62041
H    -1.21398  -3.59064   0.74512
H    -0.85441  -2.13167   1.68854
