16

C 1.404267823 -2.943739711 -1.868939969
C 1.768327718 1.823176584 2.136557200
O 2.394414298 3.750646889 3.542124342
C 0.034797455 -0.563535265 -2.717995428
N -1.723778559 0.640538260 -0.939216031
C -2.308418361 -0.424320937 1.450928638
C -0.848647260 2.018964022 1.264722018
H 0.075198911 -4.447550955 -1.385567396
H 2.631070559 -2.577002187 -0.256376063
H 2.568206211 -3.631945349 -3.427279978
H 1.038228005 4.993626077 3.739385180
H -1.096424615 -0.997207059 -4.391326312
H 1.402489326 0.874975642 -3.278385415
H -1.252807219 -2.053069931 2.113737264
H -4.261355806 -0.315065268 2.062844540
H -1.872163463 3.793577744 1.605830604

