16

C 2.129938661 -2.119042198 -0.556405404
C 1.432381014 0.382981364 1.682708007
O 3.050761346 2.354549524 1.352729568
C -0.214006854 0.406483000 -2.108094599
N -2.324296067 1.418202437 -0.774722988
C -3.295257683 -0.466120299 1.007821083
C -1.267059061 1.256769181 1.784657276
H 1.208488417 -3.749586224 0.281192665
H 4.098597096 -2.092398760 0.038732866
H 2.276804282 -2.490969968 -2.612199999
H 2.229371665 3.860999071 0.705252706
H -0.775294366 -0.826795563 -3.657260895
H 1.145618665 1.825898640 -2.703589196
H -2.859193893 -2.436599996 0.666337689
H -5.206903402 -0.089897862 1.628186763
H -1.658176660 2.750082940 3.138545492

