29

C    -1.83519  -0.79617  -1.51796
C    -1.63660  -0.19104  -0.10342
C    -2.95062  -0.30425   0.68629
O    -0.71704  -1.04442   0.67630
C     0.55788  -0.99171   0.25508
C     0.98329  -1.64391  -0.97484
N     1.40221  -2.09734  -1.95898
C     1.47262  -1.26226   1.35361
N     2.21040  -1.42135   2.23584
C     0.44209   1.05808  -0.52915
C     1.67082   1.36310   0.22220
O     2.79009   1.31559  -0.28112
C    -0.96554   1.30252  -0.11477
C    -1.07197   1.99675   1.26955
C    -1.74729   2.16641  -1.16945
H    -1.98756  -1.90998  -1.53719
H    -0.97187  -0.57853  -2.15968
H    -2.72155  -0.34479  -1.95145
H    -3.49417  -1.28975   0.57946
H    -2.76667  -0.16679   1.76731
H    -3.61414   0.46089   0.31446
H     0.61771   1.01273  -1.63097
H     1.53588   1.55239   1.29989
H    -0.61636   1.37086   2.02840
H    -0.59980   3.02572   1.36640
H    -2.13397   2.14685   1.50524
H    -2.83413   2.03829  -0.94897
H    -1.57181   3.27126  -1.13851
H    -1.56200   1.83941  -2.19437
29

C    -1.83440  -0.79923  -1.51864
C    -1.64236  -0.21716  -0.10094
C    -2.95172  -0.30817   0.68818
O    -0.71765  -1.03976   0.67525
C     0.55819  -1.00763   0.25821
C     0.98286  -1.64640  -0.97415
N     1.40262  -2.09600  -1.96019
C     1.47127  -1.26695   1.35574
N     2.21142  -1.42063   2.23745
C     0.44213   1.07533  -0.53397
C     1.66974   1.36148   0.22110
O     2.78980   1.31337  -0.28062
C    -0.95356   1.32997  -0.11816
C    -1.07121   2.00150   1.27002
C    -1.75010   2.16911  -1.16991
H    -1.98710  -1.91089  -1.54075
H    -0.97081  -0.57798  -2.15799
H    -2.72114  -0.34467  -1.95070
H    -3.49752  -1.28925   0.58046
H    -2.76631  -0.16803   1.76769
H    -3.61210   0.46108   0.31396
H     0.61742   1.01785  -1.63242
H     1.53548   1.54996   1.29992
H    -0.61588   1.37062   2.02684
H    -0.60147   3.02743   1.37066
H    -2.13416   2.14593   1.50424
H    -2.83413   2.03584  -0.94793
H    -1.57698   3.27277  -1.14005
H    -1.56214   1.84005  -2.19429
29

C    -1.83361  -0.80229  -1.51932
C    -1.64813  -0.24327  -0.09846
C    -2.95282  -0.31208   0.69008
O    -0.71827  -1.03509   0.67419
C     0.55850  -1.02356   0.26134
C     0.98243  -1.64890  -0.97346
N     1.40303  -2.09466  -1.96140
C     1.46991  -1.27164   1.35787
N     2.21243  -1.41991   2.23906
C     0.44217   1.09259  -0.53880
C     1.66867   1.35986   0.21999
O     2.78951   1.31115  -0.28012
C    -0.94158   1.35743  -0.12156
C    -1.07045   2.00624   1.27049
C    -1.75291   2.17181  -1.17037
H    -1.98664  -1.91180  -1.54431
H    -0.96975  -0.57744  -2.15630
H    -2.72074  -0.34454  -1.94994
H    -3.50086  -1.28874   0.58145
H    -2.76595  -0.16927   1.76806
H    -3.61006   0.46126   0.31347
H     0.61713   1.02298  -1.63387
H     1.53509   1.54752   1.29994
H    -0.61539   1.37038   2.02528
H    -0.60314   3.02915   1.37492
H    -2.13435   2.14501   1.50323
H    -2.83412   2.03339  -0.94690
H    -1.58216   3.27428  -1.14160
H    -1.56229   1.84068  -2.19421
29

C    -1.83282  -0.80535  -1.52001
C    -1.65389  -0.26939  -0.09598
C    -2.95392  -0.31600   0.69197
O    -0.71888  -1.03043   0.67314
C     0.55881  -1.03949   0.26447
C     0.98201  -1.65139  -0.97277
N     1.40344  -2.09332  -1.96261
C     1.46856  -1.27633   1.36000
N     2.21344  -1.41919   2.24066
C     0.44220   1.10985  -0.54362
C     1.66759   1.35824   0.21888
O     2.78923   1.30893  -0.27963
C    -0.92960   1.38488  -0.12496
C    -1.06969   2.01099   1.27096
C    -1.75572   2.17451  -1.17083
H    -1.98619  -1.91270  -1.54787
H    -0.96869  -0.57689  -2.15461
H    -2.72033  -0.34442  -1.94919
H    -3.50420  -1.28824   0.58245
H    -2.76559  -0.17051   1.76844
H    -3.60801   0.46144   0.31298
H     0.61684   1.02811  -1.63532
H     1.53470   1.54509   1.29997
H    -0.61491   1.37015   2.02373
H    -0.60480   3.03087   1.37918
H    -2.13454   2.14408   1.50223
H    -2.83411   2.03094  -0.94587
H    -1.58733   3.27579  -1.14315
H    -1.56243   1.84131  -2.19413
29

C    -1.83203  -0.80841  -1.52069
C    -1.65966  -0.29551  -0.09350
C    -2.95502  -0.31991   0.69386
O    -0.71950  -1.02577   0.67209
C     0.55912  -1.05541   0.26760
C     0.98158  -1.65389  -0.97209
N     1.40385  -2.09198  -1.96382
C     1.46720  -1.28102   1.36214
N     2.21446  -1.41848   2.24227
C     0.44224   1.12710  -0.54845
C     1.66652   1.35662   0.21778
O     2.78894   1.30672  -0.27913
C    -0.91761   1.41234  -0.12835
C    -1.06893   2.01574   1.27143
C    -1.75852   2.17721  -1.17129
H    -1.98573  -1.91361  -1.55143
H    -0.96763  -0.57635  -2.15292
H    -2.71992  -0.34429  -1.94843
H    -3.50754  -1.28773   0.58344
H    -2.76523  -0.17175   1.76882
H    -3.60597   0.46162   0.31248
H     0.61655   1.03323  -1.63677
H     1.53431   1.54266   1.29999
H    -0.61443   1.36991   2.02217
H    -0.60647   3.03258   1.38345
H    -2.13473   2.14316   1.50123
H    -2.83410   2.02849  -0.94484
H    -1.59250   3.27730  -1.14469
H    -1.56258   1.84195  -2.19404
29

C    -1.83124  -0.81147  -1.52138
C    -1.66543  -0.32163  -0.09102
C    -2.95612  -0.32383   0.69576
O    -0.72012  -1.02111   0.67104
C     0.55943  -1.07134   0.27073
C     0.98115  -1.65639  -0.97140
N     1.40426  -2.09064  -1.96503
C     1.46585  -1.28571   1.36427
N     2.21547  -1.41776   2.24388
C     0.44228   1.14436  -0.55328
C     1.66545   1.35500   0.21667
O     2.78865   1.30450  -0.27863
C    -0.90563   1.43979  -0.13175
C    -1.06817   2.02049   1.27191
C    -1.76133   2.17991  -1.17174
H    -1.98527  -1.91452  -1.55499
H    -0.96657  -0.57580  -2.15123
H    -2.71952  -0.34417  -1.94767
H    -3.51088  -1.28723   0.58444
H    -2.76487  -0.17300   1.76920
H    -3.60393   0.46180   0.31199
H     0.61626   1.03836  -1.63822
H     1.53392   1.54023   1.30002
H    -0.61394   1.36967   2.02061
H    -0.60813   3.03430   1.38771
H    -2.13493   2.14224   1.50023
H    -2.83409   2.02604  -0.94381
H    -1.59768   3.27881  -1.14624
H    -1.56273   1.84258  -2.19396
29

C    -1.83046  -0.81453  -1.52206
C    -1.67119  -0.34774  -0.08854
C    -2.95721  -0.32774   0.69765
O    -0.72073  -1.01645   0.66998
C     0.55974  -1.08727   0.27386
C     0.98073  -1.65888  -0.97071
N     1.40467  -2.08930  -1.96624
C     1.46450  -1.29040   1.36640
N     2.21649  -1.41704   2.24548
C     0.44231   1.16161  -0.55810
C     1.66437   1.35338   0.21557
O     2.78837   1.30228  -0.27813
C    -0.89365   1.46725  -0.13515
C    -1.06741   2.02524   1.27238
C    -1.76414   2.18261  -1.17220
H    -1.98482  -1.91543  -1.55854
H    -0.96551  -0.57526  -2.14954
H    -2.71911  -0.34404  -1.94692
H    -3.51422  -1.28673   0.58543
H    -2.76450  -0.17424   1.76958
H    -3.60188   0.46198   0.31149
H     0.61597   1.04349  -1.63967
H     1.53353   1.53780   1.30004
H    -0.61346   1.36943   2.01906
H    -0.60980   3.03602   1.39197
H    -2.13512   2.14132   1.49923
H    -2.83408   2.02358  -0.94278
H    -1.60285   3.28033  -1.14778
H    -1.56287   1.84321  -2.19388
29

C    -1.82967  -0.81759  -1.52274
C    -1.67696  -0.37386  -0.08606
C    -2.95831  -0.33166   0.69954
O    -0.72135  -1.01178   0.66893
C     0.56005  -1.10319   0.27699
C     0.98030  -1.66138  -0.97002
N     1.40508  -2.08797  -1.96746
C     1.46314  -1.29509   1.36853
N     2.21750  -1.41632   2.24709
C     0.44235   1.17887  -0.56293
C     1.66330   1.35176   0.21446
O     2.78808   1.30006  -0.27764
C    -0.88166   1.49470  -0.13854
C    -1.06665   2.02999   1.27285
C    -1.76695   2.18531  -1.17266
H    -1.98436  -1.91634  -1.56210
H    -0.96445  -0.57472  -2.14785
H    -2.71870  -0.34392  -1.94616
H    -3.51756  -1.28622   0.58643
H    -2.76414  -0.17548   1.76996
H    -3.59984   0.46216   0.31100
H     0.61568   1.04861  -1.64112
H     1.53314   1.53537   1.30006
H    -0.61298   1.36919   2.01750
H    -0.61147   3.03773   1.39623
H    -2.13531   2.14039   1.49823
H    -2.83407   2.02113  -0.94175
H    -1.60802   3.28184  -1.14933
H    -1.56302   1.84385  -2.19380
29

C    -1.82888  -0.82065  -1.52343
C    -1.68272  -0.39998  -0.08358
C    -2.95941  -0.33557   0.70143
O    -0.72197  -1.00712   0.66788
C     0.56036  -1.11912   0.28012
C     0.97987  -1.66387  -0.96933
N     1.40549  -2.08663  -1.96867
C     1.46179  -1.29978   1.37066
N     2.21851  -1.41560   2.24869
C     0.44239   1.19613  -0.56775
C     1.66222   1.35014   0.21336
O     2.78779   1.29784  -0.27714
C    -0.86968   1.52216  -0.14194
C    -1.06589   2.03474   1.27332
C    -1.76976   2.18801  -1.17312
H    -1.98390  -1.91725  -1.56566
H    -0.96339  -0.57417  -2.14616
H    -2.71829  -0.34379  -1.94540
H    -3.52090  -1.28572   0.58742
H    -2.76378  -0.17672   1.77034
H    -3.59780   0.46235   0.31050
H     0.61539   1.05374  -1.64257
H     1.53275   1.53294   1.30009
H    -0.61250   1.36895   2.01594
H    -0.61313   3.03945   1.40050
H    -2.13550   2.13947   1.49722
H    -2.83406   2.01868  -0.94072
H    -1.61320   3.28335  -1.15087
H    -1.56316   1.84448  -2.19372
29

C    -1.82809  -0.82371  -1.52411
C    -1.68849  -0.42609  -0.08110
C    -2.96051  -0.33949   0.70333
O    -0.72258  -1.00246   0.66682
C     0.56067  -1.13505   0.28325
C     0.97944  -1.66637  -0.96864
N     1.40590  -2.08529  -1.96988
C     1.46043  -1.30447   1.37279
N     2.21953  -1.41489   2.25030
C     0.44242   1.21338  -0.57258
C     1.66115   1.34852   0.21225
O     2.78751   1.29562  -0.27664
C    -0.85770   1.54961  -0.14534
C    -1.06513   2.03949   1.27379
C    -1.77256   2.19071  -1.17358
H    -1.98345  -1.91815  -1.56922
H    -0.96233  -0.57363  -2.14447
H    -2.71789  -0.34367  -1.94465
H    -3.52424  -1.28521   0.58841
H    -2.76342  -0.17796   1.77072
H    -3.59575   0.46253   0.31001
H     0.61510   1.05886  -1.64402
H     1.53236   1.53051   1.30011
H    -0.61201   1.36871   2.01439
H    -0.61480   3.04117   1.40476
H    -2.13569   2.13855   1.49622
H    -2.83405   2.01623  -0.93969
H    -1.61837   3.28486  -1.15242
H    -1.56331   1.84511  -2.19363
29

C    -1.82730  -0.82678  -1.52480
C    -1.69425  -0.45221  -0.07862
C    -2.96161  -0.34340   0.70522
O    -0.72320  -0.99780   0.66577
C     0.56098  -1.15097   0.28638
C     0.97902  -1.66887  -0.96795
N     1.40632  -2.08395  -1.97109
C     1.45908  -1.30916   1.37493
N     2.22054  -1.41417   2.25191
C     0.44246   1.23064  -0.57741
C     1.66008   1.34690   0.21115
O     2.78722   1.29340  -0.27615
C    -0.84571   1.57707  -0.14873
C    -1.06437   2.04424   1.27426
C    -1.77537   2.19341  -1.17404
H    -1.98299  -1.91906  -1.57278
H    -0.96127  -0.57308  -2.14279
H    -2.71748  -0.34354  -1.94389
H    -3.52758  -1.28471   0.58941
H    -2.76306  -0.17920   1.77110
H    -3.59371   0.46271   0.30951
H     0.61481   1.06399  -1.64547
H     1.53197   1.52808   1.30014
H    -0.61153   1.36848   2.01283
H    -0.61647   3.04288   1.40902
H    -2.13588   2.13762   1.49522
H    -2.83404   2.01378  -0.93866
H    -1.62354   3.28637  -1.15397
H    -1.56345   1.84574  -2.19355
29

C    -1.82651  -0.82984  -1.52548
C    -1.70002  -0.47833  -0.07613
C    -2.96271  -0.34731   0.70711
O    -0.72382  -0.99314   0.66472
C     0.56129  -1.16690   0.28952
C     0.97859  -1.67136  -0.96726
N     1.40673  -2.08261  -1.97230
C     1.45773  -1.31385   1.37706
N     2.22155  -1.41345   2.25351
C     0.44249   1.24790  -0.58223
C     1.65900   1.34528   0.21004
O     2.78694   1.29119  -0.27565
C    -0.83373   1.60452  -0.15213
C    -1.06361   2.04898   1.27473
C    -1.77818   2.19611  -1.17449
H    -1.98253  -1.91997  -1.57634
H    -0.96021  -0.57254  -2.14110
H    -2.71707  -0.34341  -1.94314
H    -3.53093  -1.28420   0.59040
H    -2.76270  -0.18044   1.77148
H    -3.59167   0.46289   0.30902
H     0.61452   1.06912  -1.64692
H     1.53158   1.52564   1.30016
H    -0.61105   1.36824   2.01127
H    -0.61813   3.04460   1.41328
H    -2.13607   2.13670   1.49422
H    -2.83403   2.01133  -0.93763
H    -1.62872   3.28788  -1.15551
H    -1.56360   1.84638  -2.19347
29

C    -1.82572  -0.83290  -1.52616
C    -1.70578  -0.50445  -0.07365
C    -2.96380  -0.35123   0.70900
O    -0.72443  -0.98848   0.66367
C     0.56159  -1.18283   0.29265
C     0.97816  -1.67386  -0.96657
N     1.40714  -2.08127  -1.97351
C     1.45637  -1.31854   1.37919
N     2.22257  -1.41273   2.25512
C     0.44253   1.26515  -0.58706
C     1.65793   1.34366   0.20893
O     2.78665   1.28897  -0.27515
C    -0.82175   1.63198  -0.15553
C    -1.06285   2.05373   1.27520
C    -1.78099   2.19882  -1.17495
H    -1.98208  -1.92088  -1.57990
H    -0.95915  -0.57199  -2.13941
H    -2.71666  -0.34329  -1.94238
H    -3.53427  -1.28370   0.59140
H    -2.76234  -0.18168   1.77185
H    -3.58962   0.46307   0.30852
H     0.61423   1.07424  -1.64837
H     1.53119   1.52321   1.30019
H    -0.61056   1.36800   2.00971
H    -0.61980   3.04632   1.41754
H    -2.13626   2.13578   1.49322
H    -2.83402   2.00887  -0.93660
H    -1.63389   3.28940  -1.15706
H    -1.56375   1.84701  -2.19339
29

C    -1.82494  -0.83596  -1.52685
C    -1.71155  -0.53056  -0.07117
C    -2.96490  -0.35514   0.71090
O    -0.72505  -0.98381   0.66261
C     0.56190  -1.19875   0.29578
C     0.97774  -1.67636  -0.96588
N     1.40755  -2.07993  -1.97472
C     1.45502  -1.32323   1.38132
N     2.22358  -1.41202   2.25673
C     0.44257   1.28241  -0.59188
C     1.65686   1.34204   0.20783
O     2.78636   1.28675  -0.27465
C    -0.80976   1.65943  -0.15892
C    -1.06209   2.05848   1.27568
C    -1.78380   2.20152  -1.17541
H    -1.98162  -1.92179  -1.58346
H    -0.95809  -0.57145  -2.13772
H    -2.71626  -0.34316  -1.94162
H    -3.53761  -1.28319   0.59239
H    -2.76198  -0.18292   1.77223
H    -3.58758   0.46325   0.30803
H     0.61394   1.07937  -1.64982
H     1.53079   1.52078   1.30021
H    -0.61008   1.36776   2.00816
H    -0.62146   3.04803   1.42181
H    -2.13646   2.13486   1.49222
H    -2.83401   2.00642  -0.93556
H    -1.63906   3.29091  -1.15860
H    -1.56389   1.84764  -2.19330
29

C    -1.82415  -0.83902  -1.52753
C    -1.71731  -0.55668  -0.06869
C    -2.96600  -0.35906   0.71279
O    -0.72566  -0.97915   0.66156
C     0.56221  -1.21468   0.29891
C     0.97731  -1.67885  -0.96519
N     1.40796  -2.07859  -1.97593
C     1.45366  -1.32792   1.38345
N     2.22460  -1.41130   2.25833
C     0.44260   1.29967  -0.59671
C     1.65578   1.34042   0.20672
O     2.78608   1.28453  -0.27416
C    -0.79778   1.68689  -0.16232
C    -1.06132   2.06323   1.27615
C    -1.78661   2.20422  -1.17587
H    -1.98116  -1.92269  -1.58701
H    -0.95703  -0.57090  -2.13603
H    -2.71585  -0.34304  -1.94087
H    -3.54095  -1.28269   0.59339
H    -2.76162  -0.18417   1.77261
H    -3.58554   0.46344   0.30754
H     0.61365   1.08450  -1.65127
H     1.53040   1.51835   1.30024
H    -0.60960   1.36752   2.00660
H    -0.62313   3.04975   1.42607
H    -2.13665   2.13393   1.49121
H    -2.83401   2.00397  -0.93453
H    -1.64424   3.29242  -1.16015
H    -1.56404   1.84828  -2.19322
29

C    -1.82336  -0.84208  -1.52821
C    -1.72308  -0.58280  -0.06621
C    -2.96710  -0.36297   0.71468
O    -0.72628  -0.97449   0.66051
C     0.56252  -1.23061   0.30204
C     0.97688  -1.68135  -0.96450
N     1.40837  -2.07725  -1.97715
C     1.45231  -1.33261   1.38558
N     2.22561  -1.41058   2.25994
C     0.44264   1.31692  -0.60153
C     1.65471   1.33880   0.20562
O     2.78579   1.28231  -0.27366
C    -0.78580   1.71434  -0.16572
C    -1.06056   2.06798   1.27662
C    -1.78941   2.20692  -1.17633
H    -1.98071  -1.92360  -1.59057
H    -0.95597  -0.57036  -2.13434
H    -2.71544  -0.34291  -1.94011
H    -3.54429  -1.28218   0.59438
H    -2.76125  -0.18541   1.77299
H    -3.58349   0.46362   0.30704
H     0.61336   1.08962  -1.65272
H     1.53001   1.51592   1.30026
H    -0.60912   1.36728   2.00504
H    -0.62480   3.05146   1.43033
H    -2.13684   2.13301   1.49021
H    -2.83400   2.00152  -0.93350
H    -1.64941   3.29393  -1.16170
H    -1.56418   1.84891  -2.19314
29

C    -1.82257  -0.84514  -1.52890
C    -1.72885  -0.60891  -0.06373
C    -2.96820  -0.36689   0.71657
O    -0.72690  -0.96983   0.65946
C     0.56283  -1.24654   0.30517
C     0.97646  -1.68384  -0.96381
N     1.40878  -2.07591  -1.97836
C     1.45096  -1.33730   1.38772
N     2.22662  -1.40986   2.26155
C     0.44268   1.33418  -0.60636
C     1.65363   1.33718   0.20451
O     2.78550   1.28009  -0.27316
C    -0.77381   1.74180  -0.16911
C    -1.05980   2.07273   1.27709
C    -1.79222   2.20962  -1.17678
H    -1.98025  -1.92451  -1.59413
H    -0.95491  -0.56982  -2.13265
H    -2.71504  -0.34279  -1.93936
H    -3.54763  -1.28168   0.59538
H    -2.76089  -0.18665   1.77337
H    -3.58145   0.46380   0.30655
H     0.61307   1.09475  -1.65417
H     1.52962   1.51349   1.30029
H    -0.60863   1.36704   2.00349
H    -0.62646   3.05318   1.43459
H    -2.13703   2.13209   1.48921
H    -2.83399   1.99907  -0.93247
H    -1.65458   3.29544  -1.16324
H    -1.56433   1.84954  -2.19306
29

C    -1.82178  -0.84820  -1.52958
C    -1.73461  -0.63503  -0.06125
C    -2.96929  -0.37080   0.71847
O    -0.72751  -0.96517   0.65840
C     0.56314  -1.26246   0.30830
C     0.97603  -1.68634  -0.96312
N     1.40919  -2.07457  -1.97957
C     1.44960  -1.34199   1.38985
N     2.22764  -1.40914   2.26315
C     0.44271   1.35144  -0.61119
C     1.65256   1.33555   0.20341
O     2.78522   1.27788  -0.27266
C    -0.76183   1.76925  -0.17251
C    -1.05904   2.07748   1.27756
C    -1.79503   2.21232  -1.17724
H    -1.97979  -1.92542  -1.59769
H    -0.95385  -0.56927  -2.13096
H    -2.71463  -0.34266  -1.93860
H    -3.55097  -1.28118   0.59637
H    -2.76053  -0.18789   1.77375
H    -3.57941   0.46398   0.30605
H     0.61278   1.09988  -1.65562
H     1.52923   1.51106   1.30031
H    -0.60815   1.36681   2.00193
H    -0.62813   3.05490   1.43885
H    -2.13722   2.13117   1.48821
H    -2.83398   1.99662  -0.93144
H    -1.65976   3.29695  -1.16479
H    -1.56448   1.85017  -2.19298
29

C    -1.82099  -0.85126  -1.53027
C    -1.74038  -0.66115  -0.05877
C    -2.97039  -0.37472   0.72036
O    -0.72813  -0.96050   0.65735
C     0.56345  -1.27839   0.31143
C     0.97560  -1.68884  -0.96243
N     1.40960  -2.07323  -1.98078
C     1.44825  -1.34668   1.39198
N     2.22865  -1.40843   2.26476
C     0.44275   1.36869  -0.61601
C     1.65149   1.33393   0.20230
O     2.78493   1.27566  -0.27217
C    -0.74985   1.79671  -0.17591
C    -1.05828   2.08223   1.27803
C    -1.79784   2.21502  -1.17770
H    -1.97934  -1.92633  -1.60125
H    -0.95278  -0.56873  -2.12927
H    -2.71422  -0.34254  -1.93784
H    -3.55431  -1.28067   0.59737
H    -2.76017  -0.18913   1.77413
H    -3.57736   0.46416   0.30556
H     0.61249   1.10500  -1.65707
H     1.52884   1.50863   1.30034
H    -0.60767   1.36657   2.00037
H    -0.62980   3.05661   1.44312
H    -2.13741   2.13024   1.48721
H    -2.83397   1.99417  -0.93041
H    -1.66493   3.29847  -1.16633
H    -1.56462   1.85081  -2.19289
29

C    -1.82021  -0.85432  -1.53095
C    -1.74614  -0.68726  -0.05629
C    -2.97149  -0.37863   0.72225
O    -0.72875  -0.95584   0.65630
C     0.56376  -1.29432   0.31456
C     0.97518  -1.69133  -0.96175
N     1.41001  -2.07190  -1.98199
C     1.44689  -1.35137   1.39411
N     2.22966  -1.40771   2.26637
C     0.44279   1.38595  -0.62084
C     1.65041   1.33231   0.20120
O     2.78465   1.27344  -0.27167
C    -0.73786   1.82416  -0.17930
C    -1.05752   2.08698   1.27850
C    -1.80065   2.21772  -1.17816
H    -1.97888  -1.92724  -1.60481
H    -0.95172  -0.56818  -2.12758
H    -2.71381  -0.34241  -1.93709
H    -3.55765  -1.28017   0.59836
H    -2.75981  -0.19037   1.77451
H    -3.57532   0.46434   0.30506
H     0.61220   1.11013  -1.65852
H     1.52845   1.50620   1.30036
H    -0.60718   1.36633   1.99882
H    -0.63146   3.05833   1.44738
H    -2.13760   2.12932   1.48621
H    -2.83396   1.99171  -0.92938
H    -1.67010   3.29998  -1.16788
H    -1.56477   1.85144  -2.19281
29

C    -1.81942  -0.85738  -1.53163
C    -1.75191  -0.71338  -0.05381
C    -2.97259  -0.38255   0.72415
O    -0.72936  -0.95118   0.65524
C     0.56407  -1.31024   0.31769
C     0.97475  -1.69383  -0.96106
N     1.41042  -2.07056  -1.98320
C     1.44554  -1.35606   1.39624
N     2.23068  -1.40699   2.26797
C     0.44282   1.40321  -0.62566
C     1.64934   1.33069   0.20009
O     2.78436   1.27122  -0.27117
C    -0.72588   1.85162  -0.18270
C    -1.05676   2.09173   1.27897
C    -1.80346   2.22042  -1.17862
H    -1.97842  -1.92814  -1.60837
H    -0.95066  -0.56764  -2.12589
H    -2.71341  -0.34229  -1.93633
H    -3.56100  -1.27966   0.59936
H    -2.75945  -0.19161   1.77489
H    -3.57328   0.46452   0.30457
H     0.61191   1.11526  -1.65997
H     1.52806   1.50376   1.30039
H    -0.60670   1.36609   1.99726
H    -0.63313   3.06005   1.45164
H    -2.13779   2.12840   1.48520
H    -2.83395   1.98926  -0.92835
H    -1.67528   3.30149  -1.16942
H    -1.56491   1.85207  -2.19273
29

C    -1.82021  -0.85432  -1.53095
C    -1.74614  -0.68726  -0.05629
C    -2.97149  -0.37863   0.72225
O    -0.72875  -0.95584   0.65630
C     0.56376  -1.29432   0.31456
C     0.97518  -1.69133  -0.96175
N     1.41001  -2.07190  -1.98199
C     1.44689  -1.35137   1.39411
N     2.22966  -1.40771   2.26637
C     0.44279   1.38595  -0.62084
C     1.65041   1.33231   0.20120
O     2.78465   1.27344  -0.27167
C    -0.73786   1.82416  -0.17930
C    -1.05752   2.08698   1.27850
C    -1.80065   2.21772  -1.17816
H    -1.97888  -1.92724  -1.60481
H    -0.95172  -0.56818  -2.12758
H    -2.71381  -0.34241  -1.93709
H    -3.55765  -1.28017   0.59836
H    -2.75981  -0.19037   1.77451
H    -3.57532   0.46434   0.30506
H     0.61220   1.11013  -1.65852
H     1.52845   1.50620   1.30036
H    -0.60718   1.36633   1.99882
H    -0.63146   3.05833   1.44738
H    -2.13760   2.12932   1.48621
H    -2.83396   1.99171  -0.92938
H    -1.67010   3.29998  -1.16788
H    -1.56477   1.85144  -2.19281
29

C    -1.82099  -0.85126  -1.53027
C    -1.74038  -0.66115  -0.05877
C    -2.97039  -0.37472   0.72036
O    -0.72813  -0.96050   0.65735
C     0.56345  -1.27839   0.31143
C     0.97560  -1.68884  -0.96243
N     1.40960  -2.07323  -1.98078
C     1.44825  -1.34668   1.39198
N     2.22865  -1.40843   2.26476
C     0.44275   1.36869  -0.61601
C     1.65149   1.33393   0.20230
O     2.78493   1.27566  -0.27217
C    -0.74985   1.79671  -0.17591
C    -1.05828   2.08223   1.27803
C    -1.79784   2.21502  -1.17770
H    -1.97934  -1.92633  -1.60125
H    -0.95278  -0.56873  -2.12927
H    -2.71422  -0.34254  -1.93784
H    -3.55431  -1.28067   0.59737
H    -2.76017  -0.18913   1.77413
H    -3.57736   0.46416   0.30556
H     0.61249   1.10500  -1.65707
H     1.52884   1.50863   1.30034
H    -0.60767   1.36657   2.00037
H    -0.62980   3.05661   1.44312
H    -2.13741   2.13024   1.48721
H    -2.83397   1.99417  -0.93041
H    -1.66493   3.29847  -1.16633
H    -1.56462   1.85081  -2.19289
29

C    -1.82178  -0.84820  -1.52958
C    -1.73461  -0.63503  -0.06125
C    -2.96929  -0.37080   0.71847
O    -0.72751  -0.96517   0.65840
C     0.56314  -1.26246   0.30830
C     0.97603  -1.68634  -0.96312
N     1.40919  -2.07457  -1.97957
C     1.44960  -1.34199   1.38985
N     2.22764  -1.40914   2.26315
C     0.44271   1.35144  -0.61119
C     1.65256   1.33555   0.20341
O     2.78522   1.27788  -0.27266
C    -0.76183   1.76925  -0.17251
C    -1.05904   2.07748   1.27756
C    -1.79503   2.21232  -1.17724
H    -1.97979  -1.92542  -1.59769
H    -0.95385  -0.56927  -2.13096
H    -2.71463  -0.34266  -1.93860
H    -3.55097  -1.28118   0.59637
H    -2.76053  -0.18789   1.77375
H    -3.57941   0.46398   0.30605
H     0.61278   1.09988  -1.65562
H     1.52923   1.51106   1.30031
H    -0.60815   1.36681   2.00193
H    -0.62813   3.05490   1.43885
H    -2.13722   2.13117   1.48821
H    -2.83398   1.99662  -0.93144
H    -1.65976   3.29695  -1.16479
H    -1.56448   1.85017  -2.19298
29

C    -1.82257  -0.84514  -1.52890
C    -1.72885  -0.60891  -0.06373
C    -2.96820  -0.36689   0.71657
O    -0.72690  -0.96983   0.65946
C     0.56283  -1.24654   0.30517
C     0.97646  -1.68384  -0.96381
N     1.40878  -2.07591  -1.97836
C     1.45096  -1.33730   1.38772
N     2.22662  -1.40986   2.26155
C     0.44268   1.33418  -0.60636
C     1.65363   1.33718   0.20451
O     2.78550   1.28009  -0.27316
C    -0.77381   1.74180  -0.16911
C    -1.05980   2.07273   1.27709
C    -1.79222   2.20962  -1.17678
H    -1.98025  -1.92451  -1.59413
H    -0.95491  -0.56982  -2.13265
H    -2.71504  -0.34279  -1.93936
H    -3.54763  -1.28168   0.59538
H    -2.76089  -0.18665   1.77337
H    -3.58145   0.46380   0.30655
H     0.61307   1.09475  -1.65417
H     1.52962   1.51349   1.30029
H    -0.60863   1.36704   2.00349
H    -0.62646   3.05318   1.43459
H    -2.13703   2.13209   1.48921
H    -2.83399   1.99907  -0.93247
H    -1.65458   3.29544  -1.16324
H    -1.56433   1.84954  -2.19306
29

C    -1.82336  -0.84208  -1.52821
C    -1.72308  -0.58280  -0.06621
C    -2.96710  -0.36297   0.71468
O    -0.72628  -0.97449   0.66051
C     0.56252  -1.23061   0.30204
C     0.97688  -1.68135  -0.96450
N     1.40837  -2.07725  -1.97715
C     1.45231  -1.33261   1.38558
N     2.22561  -1.41058   2.25994
C     0.44264   1.31692  -0.60153
C     1.65471   1.33880   0.20562
O     2.78579   1.28231  -0.27366
C    -0.78580   1.71434  -0.16572
C    -1.06056   2.06798   1.27662
C    -1.78941   2.20692  -1.17633
H    -1.98071  -1.92360  -1.59057
H    -0.95597  -0.57036  -2.13434
H    -2.71544  -0.34291  -1.94011
H    -3.54429  -1.28218   0.59438
H    -2.76125  -0.18541   1.77299
H    -3.58349   0.46362   0.30704
H     0.61336   1.08962  -1.65272
H     1.53001   1.51592   1.30026
H    -0.60912   1.36728   2.00504
H    -0.62480   3.05146   1.43033
H    -2.13684   2.13301   1.49021
H    -2.83400   2.00152  -0.93350
H    -1.64941   3.29393  -1.16170
H    -1.56418   1.84891  -2.19314
29

C    -1.82415  -0.83902  -1.52753
C    -1.71731  -0.55668  -0.06869
C    -2.96600  -0.35906   0.71279
O    -0.72566  -0.97915   0.66156
C     0.56221  -1.21468   0.29891
C     0.97731  -1.67885  -0.96519
N     1.40796  -2.07859  -1.97593
C     1.45366  -1.32792   1.38345
N     2.22460  -1.41130   2.25833
C     0.44260   1.29967  -0.59671
C     1.65578   1.34042   0.20672
O     2.78608   1.28453  -0.27416
C    -0.79778   1.68689  -0.16232
C    -1.06132   2.06323   1.27615
C    -1.78661   2.20422  -1.17587
H    -1.98116  -1.92269  -1.58701
H    -0.95703  -0.57090  -2.13603
H    -2.71585  -0.34304  -1.94087
H    -3.54095  -1.28269   0.59339
H    -2.76162  -0.18417   1.77261
H    -3.58554   0.46344   0.30754
H     0.61365   1.08450  -1.65127
H     1.53040   1.51835   1.30024
H    -0.60960   1.36752   2.00660
H    -0.62313   3.04975   1.42607
H    -2.13665   2.13393   1.49121
H    -2.83401   2.00397  -0.93453
H    -1.64424   3.29242  -1.16015
H    -1.56404   1.84828  -2.19322
29

C    -1.82494  -0.83596  -1.52685
C    -1.71155  -0.53056  -0.07117
C    -2.96490  -0.35514   0.71090
O    -0.72505  -0.98381   0.66261
C     0.56190  -1.19875   0.29578
C     0.97774  -1.67636  -0.96588
N     1.40755  -2.07993  -1.97472
C     1.45502  -1.32323   1.38132
N     2.22358  -1.41202   2.25673
C     0.44257   1.28241  -0.59188
C     1.65686   1.34204   0.20783
O     2.78636   1.28675  -0.27465
C    -0.80976   1.65943  -0.15892
C    -1.06209   2.05848   1.27568
C    -1.78380   2.20152  -1.17541
H    -1.98162  -1.92179  -1.58346
H    -0.95809  -0.57145  -2.13772
H    -2.71626  -0.34316  -1.94162
H    -3.53761  -1.28319   0.59239
H    -2.76198  -0.18292   1.77223
H    -3.58758   0.46325   0.30803
H     0.61394   1.07937  -1.64982
H     1.53079   1.52078   1.30021
H    -0.61008   1.36776   2.00816
H    -0.62146   3.04803   1.42181
H    -2.13646   2.13486   1.49222
H    -2.83401   2.00642  -0.93556
H    -1.63906   3.29091  -1.15860
H    -1.56389   1.84764  -2.19330
29

C    -1.82572  -0.83290  -1.52616
C    -1.70578  -0.50445  -0.07365
C    -2.96380  -0.35123   0.70900
O    -0.72443  -0.98848   0.66367
C     0.56159  -1.18283   0.29265
C     0.97816  -1.67386  -0.96657
N     1.40714  -2.08127  -1.97351
C     1.45637  -1.31854   1.37919
N     2.22257  -1.41273   2.25512
C     0.44253   1.26515  -0.58706
C     1.65793   1.34366   0.20893
O     2.78665   1.28897  -0.27515
C    -0.82175   1.63198  -0.15553
C    -1.06285   2.05373   1.27520
C    -1.78099   2.19882  -1.17495
H    -1.98208  -1.92088  -1.57990
H    -0.95915  -0.57199  -2.13941
H    -2.71666  -0.34329  -1.94238
H    -3.53427  -1.28370   0.59140
H    -2.76234  -0.18168   1.77185
H    -3.58962   0.46307   0.30852
H     0.61423   1.07424  -1.64837
H     1.53119   1.52321   1.30019
H    -0.61056   1.36800   2.00971
H    -0.61980   3.04632   1.41754
H    -2.13626   2.13578   1.49322
H    -2.83402   2.00887  -0.93660
H    -1.63389   3.28940  -1.15706
H    -1.56375   1.84701  -2.19339
29

C    -1.82651  -0.82984  -1.52548
C    -1.70002  -0.47833  -0.07613
C    -2.96271  -0.34731   0.70711
O    -0.72382  -0.99314   0.66472
C     0.56129  -1.16690   0.28952
C     0.97859  -1.67136  -0.96726
N     1.40673  -2.08261  -1.97230
C     1.45773  -1.31385   1.37706
N     2.22155  -1.41345   2.25351
C     0.44249   1.24790  -0.58223
C     1.65900   1.34528   0.21004
O     2.78694   1.29119  -0.27565
C    -0.83373   1.60452  -0.15213
C    -1.06361   2.04898   1.27473
C    -1.77818   2.19611  -1.17449
H    -1.98253  -1.91997  -1.57634
H    -0.96021  -0.57254  -2.14110
H    -2.71707  -0.34341  -1.94314
H    -3.53093  -1.28420   0.59040
H    -2.76270  -0.18044   1.77148
H    -3.59167   0.46289   0.30902
H     0.61452   1.06912  -1.64692
H     1.53158   1.52564   1.30016
H    -0.61105   1.36824   2.01127
H    -0.61813   3.04460   1.41328
H    -2.13607   2.13670   1.49422
H    -2.83403   2.01133  -0.93763
H    -1.62872   3.28788  -1.15551
H    -1.56360   1.84638  -2.19347
29

C    -1.82730  -0.82678  -1.52480
C    -1.69425  -0.45221  -0.07862
C    -2.96161  -0.34340   0.70522
O    -0.72320  -0.99780   0.66577
C     0.56098  -1.15097   0.28638
C     0.97902  -1.66887  -0.96795
N     1.40632  -2.08395  -1.97109
C     1.45908  -1.30916   1.37493
N     2.22054  -1.41417   2.25191
C     0.44246   1.23064  -0.57741
C     1.66008   1.34690   0.21115
O     2.78722   1.29340  -0.27615
C    -0.84571   1.57707  -0.14873
C    -1.06437   2.04424   1.27426
C    -1.77537   2.19341  -1.17404
H    -1.98299  -1.91906  -1.57278
H    -0.96127  -0.57308  -2.14279
H    -2.71748  -0.34354  -1.94389
H    -3.52758  -1.28471   0.58941
H    -2.76306  -0.17920   1.77110
H    -3.59371   0.46271   0.30951
H     0.61481   1.06399  -1.64547
H     1.53197   1.52808   1.30014
H    -0.61153   1.36848   2.01283
H    -0.61647   3.04288   1.40902
H    -2.13588   2.13762   1.49522
H    -2.83404   2.01378  -0.93866
H    -1.62354   3.28637  -1.15397
H    -1.56345   1.84574  -2.19355
29

C    -1.82809  -0.82371  -1.52411
C    -1.68849  -0.42609  -0.08110
C    -2.96051  -0.33949   0.70333
O    -0.72258  -1.00246   0.66682
C     0.56067  -1.13505   0.28325
C     0.97944  -1.66637  -0.96864
N     1.40590  -2.08529  -1.96988
C     1.46043  -1.30447   1.37279
N     2.21953  -1.41489   2.25030
C     0.44242   1.21338  -0.57258
C     1.66115   1.34852   0.21225
O     2.78751   1.29562  -0.27664
C    -0.85770   1.54961  -0.14534
C    -1.06513   2.03949   1.27379
C    -1.77256   2.19071  -1.17358
H    -1.98345  -1.91815  -1.56922
H    -0.96233  -0.57363  -2.14447
H    -2.71789  -0.34367  -1.94465
H    -3.52424  -1.28521   0.58841
H    -2.76342  -0.17796   1.77072
H    -3.59575   0.46253   0.31001
H     0.61510   1.05886  -1.64402
H     1.53236   1.53051   1.30011
H    -0.61201   1.36871   2.01439
H    -0.61480   3.04117   1.40476
H    -2.13569   2.13855   1.49622
H    -2.83405   2.01623  -0.93969
H    -1.61837   3.28486  -1.15242
H    -1.56331   1.84511  -2.19363
29

C    -1.82888  -0.82065  -1.52343
C    -1.68272  -0.39998  -0.08358
C    -2.95941  -0.33557   0.70143
O    -0.72197  -1.00712   0.66788
C     0.56036  -1.11912   0.28012
C     0.97987  -1.66387  -0.96933
N     1.40549  -2.08663  -1.96867
C     1.46179  -1.29978   1.37066
N     2.21851  -1.41560   2.24869
C     0.44239   1.19613  -0.56775
C     1.66222   1.35014   0.21336
O     2.78779   1.29784  -0.27714
C    -0.86968   1.52216  -0.14194
C    -1.06589   2.03474   1.27332
C    -1.76976   2.18801  -1.17312
H    -1.98390  -1.91725  -1.56566
H    -0.96339  -0.57417  -2.14616
H    -2.71829  -0.34379  -1.94540
H    -3.52090  -1.28572   0.58742
H    -2.76378  -0.17672   1.77034
H    -3.59780   0.46235   0.31050
H     0.61539   1.05374  -1.64257
H     1.53275   1.53294   1.30009
H    -0.61250   1.36895   2.01594
H    -0.61313   3.03945   1.40050
H    -2.13550   2.13947   1.49722
H    -2.83406   2.01868  -0.94072
H    -1.61320   3.28335  -1.15087
H    -1.56316   1.84448  -2.19372
29

C    -1.82967  -0.81759  -1.52274
C    -1.67696  -0.37386  -0.08606
C    -2.95831  -0.33166   0.69954
O    -0.72135  -1.01178   0.66893
C     0.56005  -1.10319   0.27699
C     0.98030  -1.66138  -0.97002
N     1.40508  -2.08797  -1.96746
C     1.46314  -1.29509   1.36853
N     2.21750  -1.41632   2.24709
C     0.44235   1.17887  -0.56293
C     1.66330   1.35176   0.21446
O     2.78808   1.30006  -0.27764
C    -0.88166   1.49470  -0.13854
C    -1.06665   2.02999   1.27285
C    -1.76695   2.18531  -1.17266
H    -1.98436  -1.91634  -1.56210
H    -0.96445  -0.57472  -2.14785
H    -2.71870  -0.34392  -1.94616
H    -3.51756  -1.28622   0.58643
H    -2.76414  -0.17548   1.76996
H    -3.59984   0.46216   0.31100
H     0.61568   1.04861  -1.64112
H     1.53314   1.53537   1.30006
H    -0.61298   1.36919   2.01750
H    -0.61147   3.03773   1.39623
H    -2.13531   2.14039   1.49823
H    -2.83407   2.02113  -0.94175
H    -1.60802   3.28184  -1.14933
H    -1.56302   1.84385  -2.19380
29

C    -1.83046  -0.81453  -1.52206
C    -1.67119  -0.34774  -0.08854
C    -2.95721  -0.32774   0.69765
O    -0.72073  -1.01645   0.66998
C     0.55974  -1.08727   0.27386
C     0.98073  -1.65888  -0.97071
N     1.40467  -2.08930  -1.96624
C     1.46450  -1.29040   1.36640
N     2.21649  -1.41704   2.24548
C     0.44231   1.16161  -0.55810
C     1.66437   1.35338   0.21557
O     2.78837   1.30228  -0.27813
C    -0.89365   1.46725  -0.13515
C    -1.06741   2.02524   1.27238
C    -1.76414   2.18261  -1.17220
H    -1.98482  -1.91543  -1.55854
H    -0.96551  -0.57526  -2.14954
H    -2.71911  -0.34404  -1.94692
H    -3.51422  -1.28673   0.58543
H    -2.76450  -0.17424   1.76958
H    -3.60188   0.46198   0.31149
H     0.61597   1.04349  -1.63967
H     1.53353   1.53780   1.30004
H    -0.61346   1.36943   2.01906
H    -0.60980   3.03602   1.39197
H    -2.13512   2.14132   1.49923
H    -2.83408   2.02358  -0.94278
H    -1.60285   3.28033  -1.14778
H    -1.56287   1.84321  -2.19388
29

C    -1.83124  -0.81147  -1.52138
C    -1.66543  -0.32163  -0.09102
C    -2.95612  -0.32383   0.69576
O    -0.72012  -1.02111   0.67104
C     0.55943  -1.07134   0.27073
C     0.98115  -1.65639  -0.97140
N     1.40426  -2.09064  -1.96503
C     1.46585  -1.28571   1.36427
N     2.21547  -1.41776   2.24388
C     0.44228   1.14436  -0.55328
C     1.66545   1.35500   0.21667
O     2.78865   1.30450  -0.27863
C    -0.90563   1.43979  -0.13175
C    -1.06817   2.02049   1.27191
C    -1.76133   2.17991  -1.17174
H    -1.98527  -1.91452  -1.55499
H    -0.96657  -0.57580  -2.15123
H    -2.71952  -0.34417  -1.94767
H    -3.51088  -1.28723   0.58444
H    -2.76487  -0.17300   1.76920
H    -3.60393   0.46180   0.31199
H     0.61626   1.03836  -1.63822
H     1.53392   1.54023   1.30002
H    -0.61394   1.36967   2.02061
H    -0.60813   3.03430   1.38771
H    -2.13493   2.14224   1.50023
H    -2.83409   2.02604  -0.94381
H    -1.59768   3.27881  -1.14624
H    -1.56273   1.84258  -2.19396
29

C    -1.83203  -0.80841  -1.52069
C    -1.65966  -0.29551  -0.09350
C    -2.95502  -0.31991   0.69386
O    -0.71950  -1.02577   0.67209
C     0.55912  -1.05541   0.26760
C     0.98158  -1.65389  -0.97209
N     1.40385  -2.09198  -1.96382
C     1.46720  -1.28102   1.36214
N     2.21446  -1.41848   2.24227
C     0.44224   1.12710  -0.54845
C     1.66652   1.35662   0.21778
O     2.78894   1.30672  -0.27913
C    -0.91761   1.41234  -0.12835
C    -1.06893   2.01574   1.27143
C    -1.75852   2.17721  -1.17129
H    -1.98573  -1.91361  -1.55143
H    -0.96763  -0.57635  -2.15292
H    -2.71992  -0.34429  -1.94843
H    -3.50754  -1.28773   0.58344
H    -2.76523  -0.17175   1.76882
H    -3.60597   0.46162   0.31248
H     0.61655   1.03323  -1.63677
H     1.53431   1.54266   1.29999
H    -0.61443   1.36991   2.02217
H    -0.60647   3.03258   1.38345
H    -2.13473   2.14316   1.50123
H    -2.83410   2.02849  -0.94484
H    -1.59250   3.27730  -1.14469
H    -1.56258   1.84195  -2.19404
29

C    -1.83282  -0.80535  -1.52001
C    -1.65389  -0.26939  -0.09598
C    -2.95392  -0.31600   0.69197
O    -0.71888  -1.03043   0.67314
C     0.55881  -1.03949   0.26447
C     0.98201  -1.65139  -0.97277
N     1.40344  -2.09332  -1.96261
C     1.46856  -1.27633   1.36000
N     2.21344  -1.41919   2.24066
C     0.44220   1.10985  -0.54362
C     1.66759   1.35824   0.21888
O     2.78923   1.30893  -0.27963
C    -0.92960   1.38488  -0.12496
C    -1.06969   2.01099   1.27096
C    -1.75572   2.17451  -1.17083
H    -1.98619  -1.91270  -1.54787
H    -0.96869  -0.57689  -2.15461
H    -2.72033  -0.34442  -1.94919
H    -3.50420  -1.28824   0.58245
H    -2.76559  -0.17051   1.76844
H    -3.60801   0.46144   0.31298
H     0.61684   1.02811  -1.63532
H     1.53470   1.54509   1.29997
H    -0.61491   1.37015   2.02373
H    -0.60480   3.03087   1.37918
H    -2.13454   2.14408   1.50223
H    -2.83411   2.03094  -0.94587
H    -1.58733   3.27579  -1.14315
H    -1.56243   1.84131  -2.19413
29

C    -1.83361  -0.80229  -1.51932
C    -1.64813  -0.24327  -0.09846
C    -2.95282  -0.31208   0.69008
O    -0.71827  -1.03509   0.67419
C     0.55850  -1.02356   0.26134
C     0.98243  -1.64890  -0.97346
N     1.40303  -2.09466  -1.96140
C     1.46991  -1.27164   1.35787
N     2.21243  -1.41991   2.23906
C     0.44217   1.09259  -0.53880
C     1.66867   1.35986   0.21999
O     2.78951   1.31115  -0.28012
C    -0.94158   1.35743  -0.12156
C    -1.07045   2.00624   1.27049
C    -1.75291   2.17181  -1.17037
H    -1.98664  -1.91180  -1.54431
H    -0.96975  -0.57744  -2.15630
H    -2.72074  -0.34454  -1.94994
H    -3.50086  -1.28874   0.58145
H    -2.76595  -0.16927   1.76806
H    -3.61006   0.46126   0.31347
H     0.61713   1.02298  -1.63387
H     1.53509   1.54752   1.29994
H    -0.61539   1.37038   2.02528
H    -0.60314   3.02915   1.37492
H    -2.13435   2.14501   1.50323
H    -2.83412   2.03339  -0.94690
H    -1.58216   3.27428  -1.14160
H    -1.56229   1.84068  -2.19421
29

C    -1.83440  -0.79923  -1.51864
C    -1.64236  -0.21716  -0.10094
C    -2.95172  -0.30817   0.68818
O    -0.71765  -1.03976   0.67525
C     0.55819  -1.00763   0.25821
C     0.98286  -1.64640  -0.97415
N     1.40262  -2.09600  -1.96019
C     1.47127  -1.26695   1.35574
N     2.21142  -1.42063   2.23745
C     0.44213   1.07533  -0.53397
C     1.66974   1.36148   0.22110
O     2.78980   1.31337  -0.28062
C    -0.95356   1.32997  -0.11816
C    -1.07121   2.00150   1.27002
C    -1.75010   2.16911  -1.16991
H    -1.98710  -1.91089  -1.54075
H    -0.97081  -0.57798  -2.15799
H    -2.72114  -0.34467  -1.95070
H    -3.49752  -1.28925   0.58046
H    -2.76631  -0.16803   1.76769
H    -3.61210   0.46108   0.31396
H     0.61742   1.01785  -1.63242
H     1.53548   1.54996   1.29992
H    -0.61588   1.37062   2.02684
H    -0.60147   3.02743   1.37066
H    -2.13416   2.14593   1.50424
H    -2.83413   2.03584  -0.94793
H    -1.57698   3.27277  -1.14005
H    -1.56214   1.84005  -2.19429
