12

O -2.529516280 4.245283931 -0.652984507
C -1.080477141 2.600749979 -0.158929841
C -1.776634066 -0.009495118 0.718331312
C -0.007458144 -1.918803284 -0.478264379
N 2.568216189 -1.022393158 -0.106286966
C 3.365072500 1.339164339 0.010756794
O 1.470656661 3.073792005 -0.295012137
H -1.568585821 -0.047379346 2.774601475
H -3.748625922 -0.359089330 0.257286533
H -0.396659580 -2.122047486 -2.498395287
H -0.212697822 -3.772998683 0.394083751
H 3.949951636 -2.318384569 0.040879311

