10

N -3.620746341 -0.768838192 -0.556889911
C -1.196512580 -1.472125583 -0.501298005
N 0.653348355 -2.670064264 -0.614042713
C 3.715763206 -0.493779729 -0.105367633
N 2.798193761 1.520634002 0.375742844
N 0.596331198 2.458633503 0.559456008
H -3.972387466 0.931737497 0.208456369
H -4.878300835 -2.139829487 -0.154636100
H 5.244504946 -1.721771651 0.384571228
H 0.678536760 4.370002019 0.407530342

