16

C -2.815203809 2.159473682 0.232311913
C -2.674225800 -0.684725537 0.665281257
C 0.024737460 -1.678897034 1.077772508
C 1.511975674 -1.270947494 -1.288321107
C 3.435559832 0.741287610 -1.200412427
O 4.786741205 -1.550140526 -0.648947938
H -1.865768725 2.713754467 -1.514612654
H -1.932963285 3.193780184 1.787641230
H -4.774588092 2.787807051 0.095010365
H -3.519662264 -1.676435912 -0.937624769
H -3.794169795 -1.187844085 2.325834663
H -0.080750662 -3.698054583 1.488629203
H 0.872062214 -0.734362161 2.721106447
H 3.624500319 -2.743094544 -1.917696396
H 4.032016848 1.668043090 -2.936431176
H 3.479179643 1.972289393 0.446906415

