10

C -3.238335239 0.939653560 0.328121859
C -1.956746717 -1.366289317 -0.850075628
C 0.268632184 -0.703431520 -2.344605709
C 2.084331406 -0.120059157 -3.563252519
H 3.698018716 0.388741457 -4.649976415
H -1.390806926 -2.695085598 0.626854640
H -3.288863379 -2.377609266 -2.062510474
H -4.887767739 0.365479231 1.423481198
H -1.942336478 1.938541662 1.580725082
H -3.852595970 2.260115544 -1.129805796

