14

C -3.658745955 1.419359573 0.366668303
C -2.367150728 -1.049961768 -0.386897292
C 0.352832806 -0.714817498 -0.897419730
C 2.271145176 -0.503545853 -2.189447648
N 5.201784512 0.255530108 0.486629100
N 3.841567244 -0.069663960 2.394331471
N 1.729353383 -0.315809367 2.843417836
H -5.670037386 1.104250293 0.693591244
H -2.831119196 2.178746054 2.093869610
H -3.455774346 2.835222283 -1.118000715
H -2.604295237 -2.443507663 1.116183819
H -3.261091832 -1.824453737 -2.079830607
H 3.470147036 -0.389045325 -3.802456339
H 6.977274349 -0.442639659 0.693529261

