15

C -5.039753385 -0.139713764 0.362195321
C -2.289502959 -0.742231717 -0.234820732
C -0.468714043 0.589562577 1.504874801
O -0.873815483 1.026067958 3.740597156
C 1.866318673 1.579920531 0.600369807
C 4.123857916 0.208895088 0.908315759
C 5.864542097 0.553401326 -0.916906152
H -5.450287315 -0.524871941 2.342304042
H -6.299490192 -1.278027239 -0.805549939
H -5.449357418 1.849100112 0.006710569
H -1.815224541 -0.284424966 -2.192374513
H -1.926375303 -2.767070803 0.007803643
H 7.412200599 -0.760709818 -1.197078137
H 4.323697493 -1.291739621 2.305106106
H 5.656175678 2.103716405 -2.236047690

