15

C -5.000748720 -0.636460874 1.154930650
C -2.610236668 -0.403966508 -0.416714808
C -0.667769138 1.347161396 0.764867858
O -1.054306154 2.530097749 2.696760916
C 1.651227627 1.607887854 -0.615944023
C 3.941722880 0.865171932 -0.368419682
C 6.272966846 -0.190937417 -0.811307462
H -4.586960398 -1.375546613 3.032665271
H -6.343832181 -1.901043770 0.234821374
H -5.896140717 1.201282230 1.403176676
H -3.028687984 0.315469878 -2.309312334
H -1.712866411 -2.247062790 -0.704107286
H 7.897448915 0.426710061 0.265821160
H 4.550947887 0.292348209 1.672091204
H 6.503523109 -1.788777692 -2.076482939

