13

O 3.387891018 3.504838874 -1.056491358
C 3.170285654 1.448437696 -0.137046737
C 1.230656870 -0.482912689 -1.018508902
O 0.988375027 -2.380928343 0.898901181
C -1.267810681 -1.933094073 2.073748108
C -2.718009866 -0.232439412 0.951921416
C -1.406939121 0.666528419 -1.411152360
H 4.409738216 0.787222695 1.417074629
H 1.992066057 -1.382981117 -2.714582054
H -1.593252473 -3.051197608 3.750069899
H -4.572782312 0.341876835 1.569007060
H -1.278382243 2.716591003 -1.588359840
H -2.323889379 -0.055482000 -3.115238045

