11

O 0.045177286 5.752344918 1.195431373
C 1.219932599 3.902732823 0.843730098
C -2.902025632 -1.611846074 -0.917276387
C -0.716691029 -2.533654175 -0.101225410
C 1.656771440 -1.113039371 0.052554701
C 1.762130815 1.343921252 0.402344291
O 3.702747170 3.212550626 0.616752145
H -3.075879339 0.309686182 -1.607630643
H -4.592112302 -2.763316409 -0.930244311
H -0.609373388 -4.491137904 0.501928134
H 3.435838510 -2.121976905 -0.088120839

