16

C 4.820523328 -1.087954504 1.171719430
C 2.189444681 -0.859145784 0.132758249
N 1.592571321 -0.156827029 -2.124372227
O 0.321315934 -1.405265409 1.513709082
C -2.140602518 -0.820718204 -1.265543973
C -3.523497860 1.266406501 -2.498336196
C -4.216418270 0.390469914 0.141362720
H 4.958027247 0.009423138 2.908397373
H 5.174661028 -3.060063428 1.652364032
H 6.247569381 -0.448328056 -0.163178267
H 2.936926077 0.295795882 -3.406434750
H -2.210793843 -2.742153101 -1.921280620
H -2.615475575 3.091137404 -2.627854094
H -4.718563193 0.793624407 -4.095413966
H -3.731402466 1.659048296 1.667261083
H -5.914986181 -0.710038532 0.459290943

