12

C -0.912129113 -3.008989309 -0.959600583
C 1.034066261 1.522880962 0.756158942
C -0.850046678 3.317745046 0.024320643
O 1.442557945 3.996258392 1.359698425
C 2.228662054 -0.638753036 1.060530780
O 1.438834901 -2.951367345 0.280700221
H -1.279517383 -4.972419079 -1.445889986
H -2.420683570 -2.310418806 0.274950729
H -0.873311512 -1.865636368 -2.685507465
H -0.937314419 3.987159247 -1.913315255
H -2.569993117 3.510412432 1.126341834
H 4.033469518 -0.701907324 2.017414125

