11

C -0.179484335 1.928266541 1.090799487
H -0.865430579 3.666247261 1.958471186
H 1.858235483 1.690031830 1.232327992
C -1.352605980 1.115732930 -1.443313590
H -0.978652839 1.810716959 -3.342194285
C -3.895522119 0.663418176 -0.105548706
H -4.885384492 2.297031401 0.665979341
H -5.140728973 -0.691967365 -1.022382387
C -1.742944086 -0.494960468 1.470147833
H -1.839853833 -1.746998247 3.098391515
O -0.643338853 -1.511007113 -0.872181777

