13

N 4.736830533 -0.115853988 0.510024193
C 2.349188068 0.104589840 0.460987936
C 1.013361401 -1.512927283 2.225472159
C -2.491142651 -0.896413962 -0.670306190
C -1.579982930 1.806807871 -0.633378674
O 1.103253009 1.923916939 -0.813230901
H 5.611620944 1.447086145 -0.188423855
H 1.517909470 -3.488192371 1.844033303
H -1.838814805 -1.848022345 1.130756574
H -4.544870396 -1.009438897 -0.524800037
H -1.841336172 -1.940106828 -2.319249629
H -2.189102811 2.743422449 1.105101028
H -2.296806429 2.866394430 -2.246734053

