11

O -0.714709349 2.125127380 1.328930112
C -1.637748607 -0.145866278 0.350882665
C -1.956298417 0.007738617 -2.506650764
H -2.737466902 -1.744852558 -3.267222254
H -3.243434968 1.546289718 -2.967583671
H -0.140996718 0.384737883 -3.408721375
C 0.074516058 -2.313457165 1.056852522
O 1.932842135 -2.026196079 2.330469575
H -0.473554917 -4.201079986 0.341126217
H -3.487413161 -0.591444574 1.202075348
H 0.755326461 1.709148186 2.329857871

