12

C 5.323168160 0.088067568 0.376125173
C 3.098214409 -0.833224581 -0.017027906
C 0.543690571 -0.952389652 -0.558938393
C -1.342120759 0.766132482 0.541389489
C -3.660640198 1.347654198 -0.873651587
O -3.718973209 -0.296392072 1.220241871
H 6.562466596 -0.596318650 1.860595146
H 2.660438226 -2.866548386 0.682692305
H -0.160931609 -2.505526566 -1.697508134
H -0.621677546 2.165668620 1.855872645
H -3.965529933 0.465701574 -2.702868454
H -4.551757767 3.177372164 -0.604841863

