12

O 2.652492400 -0.041614056 2.303257349
N 3.832345929 0.033095643 -0.583950336
C 1.298546868 -0.065166128 -0.115838341
C -0.851653020 1.844904618 -0.517463629
N -2.666367411 -0.231581515 -0.133753757
C -0.669914374 -2.163511856 -0.413488573
H 2.823222220 1.699947034 2.819555622
H -0.768612105 2.609851089 -2.439798471
H -1.012078296 3.412601058 0.821675104
H -4.069695776 -0.324973046 -1.421405976
H -0.529305163 -3.016156870 -2.294134621
H -0.665463256 -3.643815834 1.021207790

