11

O 4.637037592 0.437273857 -0.313708804
C 2.222124358 -0.373170813 -0.241363757
C 1.705486010 -2.920767067 -0.504794395
N -3.365628004 -1.468648411 -0.132293112
C -2.372038032 0.680987432 0.317714457
C 0.289917908 1.096911277 0.718293347
H 4.660787443 2.232695864 -0.029856350
H 0.018455122 -3.381792834 -1.609298969
H -5.233940980 -1.291667585 -0.548080953
H -3.510500134 2.407883434 0.418777501
H 0.801778783 2.666848063 1.943699159

