15

C -0.531834051 -2.881846570 -0.165355741
C -1.058719364 -0.137393086 0.491065950
C 0.430597020 1.792327013 -1.078214459
C 3.143966852 1.648122391 -0.576036843
C 5.357701695 1.501718580 -0.129339035
C -4.211771395 0.356532625 -0.670793626
C -4.100369111 0.729691759 1.661997081
H -0.981034688 -3.251935031 -2.140505008
H 1.461474803 -3.305980178 0.166261827
H -1.674855288 -4.134896996 1.001312356
H -0.457195728 0.143684419 2.458204384
H 0.062377459 1.462556463 -3.080657342
H -0.245523933 3.692640102 -0.650396111
H 7.329772107 1.382457001 0.248515218
H -4.367281815 1.112103276 3.629826796

