29

C    -3.78636  -0.78012   0.03242
O    -2.37304  -0.60206  -0.11960
C    -1.62124  -0.69781   0.97979
O    -2.06677  -0.90211   2.09049
C    -0.18677  -0.41840   0.66160
Cl    0.81367  -0.44126   2.09794
C    -0.51017   1.80630   0.11308
C     0.53714   2.43226   0.88666
N     1.40183   2.85640   1.53509
C    -1.85118   2.19432   0.51080
N    -2.92845   2.44087   0.86433
N    -0.27867   1.67040  -1.24025
C     0.21749   0.52177  -1.68364
C     0.65340   0.45221  -3.13332
C     0.39793  -0.72701  -0.69393
Cl   -0.33802  -2.21297  -1.49270
C     1.93585  -0.97676  -0.62984
O     2.53317  -1.99155  -0.87388
O     2.49050   0.19495  -0.33843
C     3.91471   0.27248  -0.27184
H    -4.00840  -1.78136   0.41275
H    -4.18821  -0.01812   0.71741
H    -4.20244  -0.64425  -0.97148
H     1.76944   0.43425  -3.17333
H     0.34109   1.30302  -3.83323
H     0.30095  -0.48914  -3.58072
H     4.29071  -0.41525   0.48376
H     4.33582   0.03470  -1.25840
H     4.11496   1.31170  -0.00242
29

C    -3.78589  -0.77938   0.03241
O    -2.37201  -0.60268  -0.11888
C    -1.62154  -0.70090   0.98072
O    -2.06812  -0.90151   2.09152
C    -0.18498  -0.43487   0.66475
Cl    0.81326  -0.43761   2.10079
C    -0.51194   1.82108   0.11171
C     0.53729   2.43661   0.88650
N     1.40334   2.85747   1.53564
C    -1.85263   2.19800   0.50995
N    -2.93058   2.44063   0.86503
N    -0.27757   1.66367  -1.23295
C     0.21460   0.54321  -1.70184
C     0.65527   0.45486  -3.14169
C     0.40100  -0.74969  -0.67679
Cl   -0.33824  -2.21172  -1.49547
C     1.93622  -0.98081  -0.62743
O     2.53717  -1.99266  -0.87660
O     2.48765   0.19290  -0.33857
C     3.91261   0.27263  -0.27272
H    -4.00847  -1.78105   0.41287
H    -4.18794  -0.01769   0.71724
H    -4.20212  -0.64409  -0.97156
H     1.76986   0.43434  -3.17371
H     0.34322   1.30201  -3.83870
H     0.30098  -0.48918  -3.58044
H     4.29038  -0.41511   0.48345
H     4.33528   0.03493  -1.25866
H     4.11399   1.31181  -0.00264
29

C    -3.78541  -0.77865   0.03239
O    -2.37097  -0.60330  -0.11815
C    -1.62184  -0.70399   0.98165
O    -2.06947  -0.90090   2.09255
C    -0.18320  -0.45134   0.66789
Cl    0.81286  -0.43395   2.10365
C    -0.51371   1.83587   0.11033
C     0.53744   2.44095   0.88634
N     1.40486   2.85855   1.53619
C    -1.85409   2.20168   0.50910
N    -2.93271   2.44040   0.86573
N    -0.27647   1.65694  -1.22565
C     0.21171   0.56466  -1.72004
C     0.65714   0.45751  -3.15006
C     0.40407  -0.77238  -0.65964
Cl   -0.33846  -2.21046  -1.49824
C     1.93659  -0.98486  -0.62502
O     2.54117  -1.99376  -0.87932
O     2.48480   0.19084  -0.33872
C     3.91051   0.27278  -0.27361
H    -4.00855  -1.78075   0.41300
H    -4.18767  -0.01726   0.71707
H    -4.20180  -0.64393  -0.97165
H     1.77028   0.43442  -3.17409
H     0.34536   1.30101  -3.84417
H     0.30102  -0.48923  -3.58016
H     4.29004  -0.41498   0.48315
H     4.33474   0.03515  -1.25893
H     4.11303   1.31192  -0.00285
29

C    -3.78493  -0.77791   0.03238
O    -2.36993  -0.60392  -0.11743
C    -1.62214  -0.70708   0.98257
O    -2.07081  -0.90030   2.09359
C    -0.18141  -0.46782   0.67104
Cl    0.81245  -0.43029   2.10650
C    -0.51548   1.85065   0.10896
C     0.53759   2.44530   0.88618
N     1.40638   2.85962   1.53673
C    -1.85555   2.20535   0.50825
N    -2.93484   2.44016   0.86643
N    -0.27537   1.65021  -1.21836
C     0.20882   0.58611  -1.73824
C     0.65901   0.46016  -3.15843
C     0.40715  -0.79506  -0.64250
Cl   -0.33867  -2.20921  -1.50101
C     1.93697  -0.98892  -0.62260
O     2.54517  -1.99487  -0.88204
O     2.48195   0.18878  -0.33886
C     3.90841   0.27293  -0.27450
H    -4.00863  -1.78044   0.41312
H    -4.18740  -0.01683   0.71689
H    -4.20148  -0.64378  -0.97173
H     1.77071   0.43450  -3.17447
H     0.34750   1.30000  -3.84964
H     0.30105  -0.48928  -3.57988
H     4.28971  -0.41484   0.48284
H     4.33421   0.03538  -1.25919
H     4.11206   1.31203  -0.00306
29

C    -3.78445  -0.77718   0.03236
O    -2.36890  -0.60455  -0.11671
C    -1.62245  -0.71017   0.98350
O    -2.07216  -0.89969   2.09462
C    -0.17963  -0.48429   0.67418
Cl    0.81204  -0.42664   2.10936
C    -0.51725   1.86543   0.10759
C     0.53774   2.44965   0.88603
N     1.40790   2.86069   1.53728
C    -1.85700   2.20903   0.50740
N    -2.93697   2.43992   0.86714
N    -0.27428   1.64348  -1.21106
C     0.20593   0.60756  -1.75644
C     0.66088   0.46280  -3.16680
C     0.41022  -0.81774  -0.62535
Cl   -0.33889  -2.20796  -1.50379
C     1.93734  -0.99297  -0.62019
O     2.54917  -1.99597  -0.88476
O     2.47910   0.18673  -0.33901
C     3.90631   0.27308  -0.27538
H    -4.00871  -1.78013   0.41324
H    -4.18714  -0.01640   0.71672
H    -4.20116  -0.64362  -0.97182
H     1.77113   0.43458  -3.17485
H     0.34963   1.29900  -3.85511
H     0.30108  -0.48933  -3.57960
H     4.28938  -0.41470   0.48254
H     4.33367   0.03561  -1.25946
H     4.11109   1.31213  -0.00328
29

C    -3.78397  -0.77644   0.03235
O    -2.36786  -0.60517  -0.11598
C    -1.62275  -0.71326   0.98443
O    -2.07351  -0.89909   2.09566
C    -0.17784  -0.50076   0.67733
Cl    0.81164  -0.42298   2.11221
C    -0.51902   1.88022   0.10622
C     0.53789   2.45400   0.88587
N     1.40941   2.86177   1.53783
C    -1.85846   2.21271   0.50656
N    -2.93910   2.43968   0.86784
N    -0.27318   1.63675  -1.20377
C     0.20304   0.62900  -1.77463
C     0.66275   0.46545  -3.17517
C     0.41329  -0.84042  -0.60821
Cl   -0.33910  -2.20671  -1.50656
C     1.93771  -0.99703  -0.61778
O     2.55317  -1.99708  -0.88748
O     2.47625   0.18467  -0.33915
C     3.90421   0.27323  -0.27627
H    -4.00878  -1.77982   0.41336
H    -4.18687  -0.01598   0.71655
H    -4.20084  -0.64346  -0.97190
H     1.77155   0.43466  -3.17523
H     0.35177   1.29799  -3.86058
H     0.30112  -0.48938  -3.57932
H     4.28905  -0.41456   0.48224
H     4.33313   0.03583  -1.25972
H     4.11012   1.31224  -0.00349
29

C    -3.78349  -0.77571   0.03234
O    -2.36682  -0.60579  -0.11526
C    -1.62305  -0.71636   0.98536
O    -2.07485  -0.89848   2.09669
C    -0.17606  -0.51723   0.68047
Cl    0.81123  -0.41933   2.11507
C    -0.52079   1.89500   0.10484
C     0.53804   2.45834   0.88571
N     1.41093   2.86284   1.53838
C    -1.85991   2.21639   0.50571
N    -2.94123   2.43945   0.86854
N    -0.27208   1.63002  -1.19647
C     0.20015   0.65045  -1.79283
C     0.66463   0.46810  -3.18354
C     0.41636  -0.86311  -0.59106
Cl   -0.33932  -2.20545  -1.50933
C     1.93809  -1.00108  -0.61536
O     2.55717  -1.99818  -0.89020
O     2.47340   0.18262  -0.33929
C     3.90211   0.27338  -0.27715
H    -4.00886  -1.77951   0.41348
H    -4.18660  -0.01555   0.71637
H    -4.20052  -0.64331  -0.97199
H     1.77197   0.43474  -3.17561
H     0.35391   1.29699  -3.86605
H     0.30115  -0.48943  -3.57904
H     4.28871  -0.41442   0.48193
H     4.33259   0.03606  -1.25999
H     4.10916   1.31235  -0.00370
29

C    -3.78301  -0.77497   0.03232
O    -2.36578  -0.60641  -0.11454
C    -1.62335  -0.71945   0.98629
O    -2.07620  -0.89788   2.09773
C    -0.17427  -0.53371   0.68362
Cl    0.81082  -0.41567   2.11792
C    -0.52256   1.90978   0.10347
C     0.53819   2.46269   0.88555
N     1.41245   2.86391   1.53893
C    -1.86137   2.22007   0.50486
N    -2.94336   2.43921   0.86924
N    -0.27098   1.62329  -1.18917
C     0.19725   0.67190  -1.81103
C     0.66650   0.47075  -3.19191
C     0.41943  -0.88579  -0.57392
Cl   -0.33954  -2.20420  -1.51211
C     1.93846  -1.00514  -0.61295
O     2.56117  -1.99929  -0.89292
O     2.47055   0.18056  -0.33944
C     3.90001   0.27353  -0.27804
H    -4.00894  -1.77921   0.41361
H    -4.18634  -0.01512   0.71620
H    -4.20020  -0.64315  -0.97207
H     1.77240   0.43482  -3.17599
H     0.35605   1.29598  -3.87152
H     0.30118  -0.48948  -3.57876
H     4.28838  -0.41429   0.48163
H     4.33206   0.03628  -1.26025
H     4.10819   1.31245  -0.00392
29

C    -3.78253  -0.77424   0.03231
O    -2.36475  -0.60703  -0.11381
C    -1.62366  -0.72254   0.98722
O    -2.07755  -0.89727   2.09876
C    -0.17249  -0.55018   0.68676
Cl    0.81042  -0.41202   2.12078
C    -0.52433   1.92456   0.10210
C     0.53834   2.46704   0.88540
N     1.41397   2.86498   1.53948
C    -1.86283   2.22374   0.50401
N    -2.94549   2.43897   0.86994
N    -0.26988   1.61656  -1.18188
C     0.19436   0.69335  -1.82923
C     0.66837   0.47340  -3.20028
C     0.42250  -0.90847  -0.55677
Cl   -0.33975  -2.20295  -1.51488
C     1.93884  -1.00919  -0.61054
O     2.56516  -2.00039  -0.89564
O     2.46770   0.17850  -0.33958
C     3.89791   0.27368  -0.27893
H    -4.00901  -1.77890   0.41373
H    -4.18607  -0.01469   0.71603
H    -4.19988  -0.64300  -0.97215
H     1.77282   0.43491  -3.17638
H     0.35818   1.29498  -3.87699
H     0.30121  -0.48953  -3.57849
H     4.28805  -0.41415   0.48132
H     4.33152   0.03651  -1.26052
H     4.10722   1.31256  -0.00413
29

C    -3.78205  -0.77350   0.03230
O    -2.36371  -0.60766  -0.11309
C    -1.62396  -0.72563   0.98814
O    -2.07889  -0.89667   2.09980
C    -0.17070  -0.56665   0.68991
Cl    0.81001  -0.40836   2.12363
C    -0.52610   1.93935   0.10073
C     0.53849   2.47139   0.88524
N     1.41549   2.86606   1.54003
C    -1.86428   2.22742   0.50316
N    -2.94762   2.43873   0.87064
N    -0.26878   1.60983  -1.17458
C     0.19147   0.71479  -1.84743
C     0.67024   0.47605  -3.20865
C     0.42557  -0.93115  -0.53963
Cl   -0.33997  -2.20169  -1.51765
C     1.93921  -1.01325  -0.60812
O     2.56916  -2.00150  -0.89836
O     2.46485   0.17645  -0.33973
C     3.89582   0.27383  -0.27981
H    -4.00909  -1.77859   0.41385
H    -4.18580  -0.01427   0.71586
H    -4.19956  -0.64284  -0.97224
H     1.77324   0.43499  -3.17676
H     0.36032   1.29397  -3.88246
H     0.30125  -0.48958  -3.57821
H     4.28771  -0.41401   0.48102
H     4.33098   0.03673  -1.26078
H     4.10626   1.31267  -0.00435
29

C    -3.78157  -0.77277   0.03228
O    -2.36267  -0.60828  -0.11236
C    -1.62426  -0.72872   0.98907
O    -2.08024  -0.89606   2.10083
C    -0.16892  -0.58313   0.69306
Cl    0.80960  -0.40471   2.12649
C    -0.52787   1.95413   0.09935
C     0.53864   2.47574   0.88508
N     1.41700   2.86713   1.54058
C    -1.86574   2.23110   0.50231
N    -2.94976   2.43850   0.87134
N    -0.26768   1.60310  -1.16728
C     0.18858   0.73624  -1.86562
C     0.67211   0.47869  -3.21702
C     0.42864  -0.95383  -0.52248
Cl   -0.34019  -2.20044  -1.52043
C     1.93958  -1.01730  -0.60571
O     2.57316  -2.00260  -0.90108
O     2.46201   0.17439  -0.33987
C     3.89372   0.27398  -0.28070
H    -4.00917  -1.77828   0.41397
H    -4.18553  -0.01384   0.71568
H    -4.19924  -0.64268  -0.97232
H     1.77366   0.43507  -3.17714
H     0.36246   1.29297  -3.88793
H     0.30128  -0.48962  -3.57793
H     4.28738  -0.41387   0.48071
H     4.33044   0.03696  -1.26105
H     4.10529   1.31277  -0.00456
29

C    -3.78109  -0.77203   0.03227
O    -2.36163  -0.60890  -0.11164
C    -1.62456  -0.73181   0.99000
O    -2.08159  -0.89546   2.10187
C    -0.16713  -0.59960   0.69620
Cl    0.80920  -0.40105   2.12934
C    -0.52964   1.96891   0.09798
C     0.53879   2.48008   0.88493
N     1.41852   2.86820   1.54113
C    -1.86719   2.23478   0.50147
N    -2.95189   2.43826   0.87204
N    -0.26659   1.59637  -1.15999
C     0.18569   0.75769  -1.88382
C     0.67398   0.48134  -3.22539
C     0.43172  -0.97652  -0.50534
Cl   -0.34040  -2.19919  -1.52320
C     1.93996  -1.02135  -0.60330
O     2.57716  -2.00371  -0.90380
O     2.45916   0.17234  -0.34001
C     3.89162   0.27413  -0.28159
H    -4.00924  -1.77797   0.41409
H    -4.18527  -0.01341   0.71551
H    -4.19892  -0.64253  -0.97241
H     1.77409   0.43515  -3.17752
H     0.36459   1.29196  -3.89340
H     0.30131  -0.48967  -3.57765
H     4.28705  -0.41373   0.48041
H     4.32991   0.03718  -1.26131
H     4.10432   1.31288  -0.00477
29

C    -3.78061  -0.77130   0.03225
O    -2.36060  -0.60952  -0.11092
C    -1.62486  -0.73490   0.99093
O    -2.08294  -0.89485   2.10290
C    -0.16535  -0.61607   0.69935
Cl    0.80879  -0.39740   2.13220
C    -0.53141   1.98370   0.09661
C     0.53894   2.48443   0.88477
N     1.42004   2.86927   1.54168
C    -1.86865   2.23845   0.50062
N    -2.95402   2.43802   0.87274
N    -0.26549   1.58964  -1.15269
C     0.18280   0.77914  -1.90202
C     0.67585   0.48399  -3.23376
C     0.43479  -0.99920  -0.48819
Cl   -0.34062  -2.19794  -1.52597
C     1.94033  -1.02541  -0.60089
O     2.58116  -2.00481  -0.90652
O     2.45631   0.17028  -0.34016
C     3.88952   0.27428  -0.28247
H    -4.00932  -1.77767   0.41422
H    -4.18500  -0.01298   0.71534
H    -4.19860  -0.64237  -0.97249
H     1.77451   0.43523  -3.17790
H     0.36673   1.29096  -3.89887
H     0.30135  -0.48972  -3.57737
H     4.28672  -0.41359   0.48010
H     4.32937   0.03741  -1.26158
H     4.10335   1.31299  -0.00499
29

C    -3.78013  -0.77057   0.03224
O    -2.35956  -0.61014  -0.11019
C    -1.62517  -0.73799   0.99186
O    -2.08428  -0.89425   2.10394
C    -0.16356  -0.63254   0.70249
Cl    0.80838  -0.39374   2.13505
C    -0.53318   1.99848   0.09524
C     0.53909   2.48878   0.88461
N     1.42156   2.87035   1.54222
C    -1.87011   2.24213   0.49977
N    -2.95615   2.43779   0.87344
N    -0.26439   1.58291  -1.14540
C     0.17991   0.80058  -1.92022
C     0.67772   0.48664  -3.24213
C     0.43786  -1.02188  -0.47104
Cl   -0.34084  -2.19668  -1.52874
C     1.94071  -1.02946  -0.59847
O     2.58516  -2.00592  -0.90924
O     2.45346   0.16822  -0.34030
C     3.88742   0.27443  -0.28336
H    -4.00940  -1.77736   0.41434
H    -4.18473  -0.01255   0.71516
H    -4.19828  -0.64221  -0.97258
H     1.77493   0.43531  -3.17828
H     0.36887   1.28995  -3.90435
H     0.30138  -0.48977  -3.57709
H     4.28638  -0.41346   0.47980
H     4.32883   0.03763  -1.26184
H     4.10239   1.31310  -0.00520
29

C    -3.77966  -0.76983   0.03223
O    -2.35852  -0.61077  -0.10947
C    -1.62547  -0.74108   0.99279
O    -2.08563  -0.89364   2.10497
C    -0.16178  -0.64902   0.70564
Cl    0.80798  -0.39009   2.13791
C    -0.53495   2.01326   0.09386
C     0.53924   2.49313   0.88445
N     1.42307   2.87142   1.54277
C    -1.87156   2.24581   0.49892
N    -2.95828   2.43755   0.87414
N    -0.26329   1.57618  -1.13810
C     0.17701   0.82203  -1.93842
C     0.67959   0.48929  -3.25050
C     0.44093  -1.04456  -0.45390
Cl   -0.34105  -2.19543  -1.53152
C     1.94108  -1.03352  -0.59606
O     2.58916  -2.00702  -0.91196
O     2.45061   0.16617  -0.34045
C     3.88532   0.27458  -0.28425
H    -4.00948  -1.77705   0.41446
H    -4.18446  -0.01213   0.71499
H    -4.19796  -0.64206  -0.97266
H     1.77535   0.43540  -3.17866
H     0.37100   1.28895  -3.90982
H     0.30141  -0.48982  -3.57681
H     4.28605  -0.41332   0.47949
H     4.32830   0.03786  -1.26210
H     4.10142   1.31320  -0.00542
29

C    -3.77918  -0.76910   0.03221
O    -2.35749  -0.61139  -0.10874
C    -1.62577  -0.74418   0.99371
O    -2.08698  -0.89304   2.10601
C    -0.15999  -0.66549   0.70878
Cl    0.80757  -0.38643   2.14076
C    -0.53672   2.02804   0.09249
C     0.53939   2.49747   0.88430
N     1.42459   2.87249   1.54332
C    -1.87302   2.24949   0.49807
N    -2.96041   2.43731   0.87484
N    -0.26219   1.56945  -1.13080
C     0.17412   0.84348  -1.95661
C     0.68146   0.49193  -3.25887
C     0.44400  -1.06725  -0.43675
Cl   -0.34127  -2.19418  -1.53429
C     1.94145  -1.03757  -0.59365
O     2.59316  -2.00813  -0.91468
O     2.44776   0.16411  -0.34059
C     3.88322   0.27473  -0.28513
H    -4.00955  -1.77674   0.41458
H    -4.18420  -0.01170   0.71482
H    -4.19764  -0.64190  -0.97275
H     1.77578   0.43548  -3.17904
H     0.37314   1.28794  -3.91529
H     0.30145  -0.48987  -3.57653
H     4.28572  -0.41318   0.47919
H     4.32776   0.03808  -1.26237
H     4.10045   1.31331  -0.00563
29

C    -3.77870  -0.76836   0.03220
O    -2.35645  -0.61201  -0.10802
C    -1.62607  -0.74727   0.99464
O    -2.08832  -0.89243   2.10704
C    -0.15821  -0.68196   0.71193
Cl    0.80717  -0.38278   2.14362
C    -0.53849   2.04283   0.09112
C     0.53954   2.50182   0.88414
N     1.42611   2.87357   1.54387
C    -1.87447   2.25317   0.49722
N    -2.96254   2.43707   0.87554
N    -0.26109   1.56272  -1.12351
C     0.17123   0.86493  -1.97481
C     0.68333   0.49458  -3.26724
C     0.44707  -1.08993  -0.41961
Cl   -0.34148  -2.19293  -1.53706
C     1.94183  -1.04163  -0.59123
O     2.59715  -2.00923  -0.91740
O     2.44491   0.16206  -0.34074
C     3.88112   0.27488  -0.28602
H    -4.00963  -1.77643   0.41471
H    -4.18393  -0.01127   0.71464
H    -4.19732  -0.64175  -0.97283
H     1.77620   0.43556  -3.17942
H     0.37528   1.28694  -3.92076
H     0.30148  -0.48992  -3.57625
H     4.28539  -0.41304   0.47888
H     4.32722   0.03831  -1.26263
H     4.09949   1.31342  -0.00584
29

C    -3.77822  -0.76763   0.03218
O    -2.35541  -0.61263  -0.10730
C    -1.62638  -0.75036   0.99557
O    -2.08967  -0.89183   2.10808
C    -0.15642  -0.69844   0.71507
Cl    0.80676  -0.37912   2.14647
C    -0.54026   2.05761   0.08975
C     0.53968   2.50617   0.88398
N     1.42763   2.87464   1.54442
C    -1.87593   2.25684   0.49637
N    -2.96467   2.43684   0.87624
N    -0.25999   1.55599  -1.11621
C     0.16834   0.88637  -1.99301
C     0.68520   0.49723  -3.27560
C     0.45014  -1.11261  -0.40246
Cl   -0.34170  -2.19167  -1.53984
C     1.94220  -1.04568  -0.58882
O     2.60115  -2.01034  -0.92012
O     2.44206   0.16000  -0.34088
C     3.87902   0.27503  -0.28691
H    -4.00971  -1.77613   0.41483
H    -4.18366  -0.01084   0.71447
H    -4.19700  -0.64159  -0.97292
H     1.77662   0.43564  -3.17980
H     0.37741   1.28593  -3.92623
H     0.30151  -0.48997  -3.57597
H     4.28505  -0.41290   0.47858
H     4.32668   0.03854  -1.26290
H     4.09852   1.31352  -0.00606
29

C    -3.77774  -0.76689   0.03217
O    -2.35437  -0.61325  -0.10657
C    -1.62668  -0.75345   0.99650
O    -2.09102  -0.89122   2.10911
C    -0.15464  -0.71491   0.71822
Cl    0.80635  -0.37547   2.14933
C    -0.54204   2.07239   0.08837
C     0.53983   2.51052   0.88382
N     1.42914   2.87571   1.54497
C    -1.87739   2.26052   0.49553
N    -2.96680   2.43660   0.87695
N    -0.25890   1.54926  -1.10891
C     0.16545   0.90782  -2.01121
C     0.68708   0.49988  -3.28397
C     0.45321  -1.13529  -0.38532
Cl   -0.34192  -2.19042  -1.54261
C     1.94257  -1.04974  -0.58641
O     2.60515  -2.01144  -0.92284
O     2.43921   0.15794  -0.34102
C     3.87692   0.27518  -0.28779
H    -4.00978  -1.77582   0.41495
H    -4.18339  -0.01042   0.71430
H    -4.19668  -0.64143  -0.97300
H     1.77704   0.43572  -3.18018
H     0.37955   1.28493  -3.93170
H     0.30155  -0.49002  -3.57570
H     4.28472  -0.41277   0.47828
H     4.32615   0.03876  -1.26316
H     4.09755   1.31363  -0.00627
29

C    -3.77726  -0.76616   0.03216
O    -2.35334  -0.61387  -0.10585
C    -1.62698  -0.75654   0.99743
O    -2.09236  -0.89062   2.11015
C    -0.15285  -0.73138   0.72136
Cl    0.80595  -0.37181   2.15218
C    -0.54381   2.08718   0.08700
C     0.53998   2.51486   0.88367
N     1.43066   2.87678   1.54552
C    -1.87884   2.26420   0.49468
N    -2.96893   2.43636   0.87765
N    -0.25780   1.54253  -1.10162
C     0.16256   0.92927  -2.02941
C     0.68895   0.50253  -3.29234
C     0.45628  -1.15797  -0.36817
Cl   -0.34213  -2.18917  -1.54538
C     1.94295  -1.05379  -0.58399
O     2.60915  -2.01255  -0.92556
O     2.43636   0.15589  -0.34117
C     3.87482   0.27534  -0.28868
H    -4.00986  -1.77551   0.41507
H    -4.18313  -0.00999   0.71413
H    -4.19636  -0.64128  -0.97309
H     1.77747   0.43580  -3.18056
H     0.38169   1.28392  -3.93717
H     0.30158  -0.49007  -3.57542
H     4.28439  -0.41263   0.47797
H     4.32561   0.03899  -1.26343
H     4.09659   1.31374  -0.00649
29

C    -3.77678  -0.76542   0.03214
O    -2.35230  -0.61450  -0.10512
C    -1.62728  -0.75963   0.99836
O    -2.09371  -0.89001   2.11118
C    -0.15107  -0.74785   0.72451
Cl    0.80554  -0.36816   2.15504
C    -0.54558   2.10196   0.08563
C     0.54013   2.51921   0.88351
N     1.43218   2.87786   1.54607
C    -1.88030   2.26788   0.49383
N    -2.97107   2.43612   0.87835
N    -0.25670   1.53580  -1.09432
C     0.15967   0.95072  -2.04760
C     0.69082   0.50517  -3.30071
C     0.45936  -1.18066  -0.35103
Cl   -0.34235  -2.18791  -1.54815
C     1.94332  -1.05784  -0.58158
O     2.61315  -2.01365  -0.92828
O     2.43351   0.15383  -0.34131
C     3.87272   0.27549  -0.28956
H    -4.00994  -1.77520   0.41519
H    -4.18286  -0.00956   0.71395
H    -4.19604  -0.64112  -0.97317
H     1.77789   0.43588  -3.18094
H     0.38382   1.28292  -3.94264
H     0.30161  -0.49011  -3.57514
H     4.28405  -0.41249   0.47767
H     4.32507   0.03921  -1.26369
H     4.09562   1.31384  -0.00670
29

C    -3.77726  -0.76616   0.03216
O    -2.35334  -0.61387  -0.10585
C    -1.62698  -0.75654   0.99743
O    -2.09236  -0.89062   2.11015
C    -0.15285  -0.73138   0.72136
Cl    0.80595  -0.37181   2.15218
C    -0.54381   2.08718   0.08700
C     0.53998   2.51486   0.88367
N     1.43066   2.87678   1.54552
C    -1.87884   2.26420   0.49468
N    -2.96893   2.43636   0.87765
N    -0.25780   1.54253  -1.10162
C     0.16256   0.92927  -2.02941
C     0.68895   0.50253  -3.29234
C     0.45628  -1.15797  -0.36817
Cl   -0.34213  -2.18917  -1.54538
C     1.94295  -1.05379  -0.58399
O     2.60915  -2.01255  -0.92556
O     2.43636   0.15589  -0.34117
C     3.87482   0.27534  -0.28868
H    -4.00986  -1.77551   0.41507
H    -4.18313  -0.00999   0.71413
H    -4.19636  -0.64128  -0.97309
H     1.77747   0.43580  -3.18056
H     0.38169   1.28392  -3.93717
H     0.30158  -0.49007  -3.57542
H     4.28439  -0.41263   0.47797
H     4.32561   0.03899  -1.26343
H     4.09659   1.31374  -0.00649
29

C    -3.77774  -0.76689   0.03217
O    -2.35437  -0.61325  -0.10657
C    -1.62668  -0.75345   0.99650
O    -2.09102  -0.89122   2.10911
C    -0.15464  -0.71491   0.71822
Cl    0.80635  -0.37547   2.14933
C    -0.54204   2.07239   0.08837
C     0.53983   2.51052   0.88382
N     1.42914   2.87571   1.54497
C    -1.87739   2.26052   0.49553
N    -2.96680   2.43660   0.87695
N    -0.25890   1.54926  -1.10891
C     0.16545   0.90782  -2.01121
C     0.68708   0.49988  -3.28397
C     0.45321  -1.13529  -0.38532
Cl   -0.34192  -2.19042  -1.54261
C     1.94257  -1.04974  -0.58641
O     2.60515  -2.01144  -0.92284
O     2.43921   0.15794  -0.34102
C     3.87692   0.27518  -0.28779
H    -4.00978  -1.77582   0.41495
H    -4.18339  -0.01042   0.71430
H    -4.19668  -0.64143  -0.97300
H     1.77704   0.43572  -3.18018
H     0.37955   1.28493  -3.93170
H     0.30155  -0.49002  -3.57570
H     4.28472  -0.41277   0.47828
H     4.32615   0.03876  -1.26316
H     4.09755   1.31363  -0.00627
29

C    -3.77822  -0.76763   0.03218
O    -2.35541  -0.61263  -0.10730
C    -1.62638  -0.75036   0.99557
O    -2.08967  -0.89183   2.10808
C    -0.15642  -0.69844   0.71507
Cl    0.80676  -0.37912   2.14647
C    -0.54026   2.05761   0.08975
C     0.53968   2.50617   0.88398
N     1.42763   2.87464   1.54442
C    -1.87593   2.25684   0.49637
N    -2.96467   2.43684   0.87624
N    -0.25999   1.55599  -1.11621
C     0.16834   0.88637  -1.99301
C     0.68520   0.49723  -3.27560
C     0.45014  -1.11261  -0.40246
Cl   -0.34170  -2.19167  -1.53984
C     1.94220  -1.04568  -0.58882
O     2.60115  -2.01034  -0.92012
O     2.44206   0.16000  -0.34088
C     3.87902   0.27503  -0.28691
H    -4.00971  -1.77613   0.41483
H    -4.18366  -0.01084   0.71447
H    -4.19700  -0.64159  -0.97292
H     1.77662   0.43564  -3.17980
H     0.37741   1.28593  -3.92623
H     0.30151  -0.48997  -3.57597
H     4.28505  -0.41290   0.47858
H     4.32668   0.03854  -1.26290
H     4.09852   1.31352  -0.00606
29

C    -3.77870  -0.76836   0.03220
O    -2.35645  -0.61201  -0.10802
C    -1.62607  -0.74727   0.99464
O    -2.08832  -0.89243   2.10704
C    -0.15821  -0.68196   0.71193
Cl    0.80717  -0.38278   2.14362
C    -0.53849   2.04283   0.09112
C     0.53954   2.50182   0.88414
N     1.42611   2.87357   1.54387
C    -1.87447   2.25317   0.49722
N    -2.96254   2.43707   0.87554
N    -0.26109   1.56272  -1.12351
C     0.17123   0.86493  -1.97481
C     0.68333   0.49458  -3.26724
C     0.44707  -1.08993  -0.41961
Cl   -0.34148  -2.19293  -1.53706
C     1.94183  -1.04163  -0.59123
O     2.59715  -2.00923  -0.91740
O     2.44491   0.16206  -0.34074
C     3.88112   0.27488  -0.28602
H    -4.00963  -1.77643   0.41471
H    -4.18393  -0.01127   0.71464
H    -4.19732  -0.64175  -0.97283
H     1.77620   0.43556  -3.17942
H     0.37528   1.28694  -3.92076
H     0.30148  -0.48992  -3.57625
H     4.28539  -0.41304   0.47888
H     4.32722   0.03831  -1.26263
H     4.09949   1.31342  -0.00584
29

C    -3.77918  -0.76910   0.03221
O    -2.35749  -0.61139  -0.10874
C    -1.62577  -0.74418   0.99371
O    -2.08698  -0.89304   2.10601
C    -0.15999  -0.66549   0.70878
Cl    0.80757  -0.38643   2.14076
C    -0.53672   2.02804   0.09249
C     0.53939   2.49747   0.88430
N     1.42459   2.87249   1.54332
C    -1.87302   2.24949   0.49807
N    -2.96041   2.43731   0.87484
N    -0.26219   1.56945  -1.13080
C     0.17412   0.84348  -1.95661
C     0.68146   0.49193  -3.25887
C     0.44400  -1.06725  -0.43675
Cl   -0.34127  -2.19418  -1.53429
C     1.94145  -1.03757  -0.59365
O     2.59316  -2.00813  -0.91468
O     2.44776   0.16411  -0.34059
C     3.88322   0.27473  -0.28513
H    -4.00955  -1.77674   0.41458
H    -4.18420  -0.01170   0.71482
H    -4.19764  -0.64190  -0.97275
H     1.77578   0.43548  -3.17904
H     0.37314   1.28794  -3.91529
H     0.30145  -0.48987  -3.57653
H     4.28572  -0.41318   0.47919
H     4.32776   0.03808  -1.26237
H     4.10045   1.31331  -0.00563
29

C    -3.77966  -0.76983   0.03223
O    -2.35852  -0.61077  -0.10947
C    -1.62547  -0.74108   0.99279
O    -2.08563  -0.89364   2.10497
C    -0.16178  -0.64902   0.70564
Cl    0.80798  -0.39009   2.13791
C    -0.53495   2.01326   0.09386
C     0.53924   2.49313   0.88445
N     1.42307   2.87142   1.54277
C    -1.87156   2.24581   0.49892
N    -2.95828   2.43755   0.87414
N    -0.26329   1.57618  -1.13810
C     0.17701   0.82203  -1.93842
C     0.67959   0.48929  -3.25050
C     0.44093  -1.04456  -0.45390
Cl   -0.34105  -2.19543  -1.53152
C     1.94108  -1.03352  -0.59606
O     2.58916  -2.00702  -0.91196
O     2.45061   0.16617  -0.34045
C     3.88532   0.27458  -0.28425
H    -4.00948  -1.77705   0.41446
H    -4.18446  -0.01213   0.71499
H    -4.19796  -0.64206  -0.97266
H     1.77535   0.43540  -3.17866
H     0.37100   1.28895  -3.90982
H     0.30141  -0.48982  -3.57681
H     4.28605  -0.41332   0.47949
H     4.32830   0.03786  -1.26210
H     4.10142   1.31320  -0.00542
29

C    -3.78013  -0.77057   0.03224
O    -2.35956  -0.61014  -0.11019
C    -1.62517  -0.73799   0.99186
O    -2.08428  -0.89425   2.10394
C    -0.16356  -0.63254   0.70249
Cl    0.80838  -0.39374   2.13505
C    -0.53318   1.99848   0.09524
C     0.53909   2.48878   0.88461
N     1.42156   2.87035   1.54222
C    -1.87011   2.24213   0.49977
N    -2.95615   2.43779   0.87344
N    -0.26439   1.58291  -1.14540
C     0.17991   0.80058  -1.92022
C     0.67772   0.48664  -3.24213
C     0.43786  -1.02188  -0.47104
Cl   -0.34084  -2.19668  -1.52874
C     1.94071  -1.02946  -0.59847
O     2.58516  -2.00592  -0.90924
O     2.45346   0.16822  -0.34030
C     3.88742   0.27443  -0.28336
H    -4.00940  -1.77736   0.41434
H    -4.18473  -0.01255   0.71516
H    -4.19828  -0.64221  -0.97258
H     1.77493   0.43531  -3.17828
H     0.36887   1.28995  -3.90435
H     0.30138  -0.48977  -3.57709
H     4.28638  -0.41346   0.47980
H     4.32883   0.03763  -1.26184
H     4.10239   1.31310  -0.00520
29

C    -3.78061  -0.77130   0.03225
O    -2.36060  -0.60952  -0.11092
C    -1.62486  -0.73490   0.99093
O    -2.08294  -0.89485   2.10290
C    -0.16535  -0.61607   0.69935
Cl    0.80879  -0.39740   2.13220
C    -0.53141   1.98370   0.09661
C     0.53894   2.48443   0.88477
N     1.42004   2.86927   1.54168
C    -1.86865   2.23845   0.50062
N    -2.95402   2.43802   0.87274
N    -0.26549   1.58964  -1.15269
C     0.18280   0.77914  -1.90202
C     0.67585   0.48399  -3.23376
C     0.43479  -0.99920  -0.48819
Cl   -0.34062  -2.19794  -1.52597
C     1.94033  -1.02541  -0.60089
O     2.58116  -2.00481  -0.90652
O     2.45631   0.17028  -0.34016
C     3.88952   0.27428  -0.28247
H    -4.00932  -1.77767   0.41422
H    -4.18500  -0.01298   0.71534
H    -4.19860  -0.64237  -0.97249
H     1.77451   0.43523  -3.17790
H     0.36673   1.29096  -3.89887
H     0.30135  -0.48972  -3.57737
H     4.28672  -0.41359   0.48010
H     4.32937   0.03741  -1.26158
H     4.10335   1.31299  -0.00499
29

C    -3.78109  -0.77203   0.03227
O    -2.36163  -0.60890  -0.11164
C    -1.62456  -0.73181   0.99000
O    -2.08159  -0.89546   2.10187
C    -0.16713  -0.59960   0.69620
Cl    0.80920  -0.40105   2.12934
C    -0.52964   1.96891   0.09798
C     0.53879   2.48008   0.88493
N     1.41852   2.86820   1.54113
C    -1.86719   2.23478   0.50147
N    -2.95189   2.43826   0.87204
N    -0.26659   1.59637  -1.15999
C     0.18569   0.75769  -1.88382
C     0.67398   0.48134  -3.22539
C     0.43172  -0.97652  -0.50534
Cl   -0.34040  -2.19919  -1.52320
C     1.93996  -1.02135  -0.60330
O     2.57716  -2.00371  -0.90380
O     2.45916   0.17234  -0.34001
C     3.89162   0.27413  -0.28159
H    -4.00924  -1.77797   0.41409
H    -4.18527  -0.01341   0.71551
H    -4.19892  -0.64253  -0.97241
H     1.77409   0.43515  -3.17752
H     0.36459   1.29196  -3.89340
H     0.30131  -0.48967  -3.57765
H     4.28705  -0.41373   0.48041
H     4.32991   0.03718  -1.26131
H     4.10432   1.31288  -0.00477
29

C    -3.78157  -0.77277   0.03228
O    -2.36267  -0.60828  -0.11236
C    -1.62426  -0.72872   0.98907
O    -2.08024  -0.89606   2.10083
C    -0.16892  -0.58313   0.69306
Cl    0.80960  -0.40471   2.12649
C    -0.52787   1.95413   0.09935
C     0.53864   2.47574   0.88508
N     1.41700   2.86713   1.54058
C    -1.86574   2.23110   0.50231
N    -2.94976   2.43850   0.87134
N    -0.26768   1.60310  -1.16728
C     0.18858   0.73624  -1.86562
C     0.67211   0.47869  -3.21702
C     0.42864  -0.95383  -0.52248
Cl   -0.34019  -2.20044  -1.52043
C     1.93958  -1.01730  -0.60571
O     2.57316  -2.00260  -0.90108
O     2.46201   0.17439  -0.33987
C     3.89372   0.27398  -0.28070
H    -4.00917  -1.77828   0.41397
H    -4.18553  -0.01384   0.71568
H    -4.19924  -0.64268  -0.97232
H     1.77366   0.43507  -3.17714
H     0.36246   1.29297  -3.88793
H     0.30128  -0.48962  -3.57793
H     4.28738  -0.41387   0.48071
H     4.33044   0.03696  -1.26105
H     4.10529   1.31277  -0.00456
29

C    -3.78205  -0.77350   0.03230
O    -2.36371  -0.60766  -0.11309
C    -1.62396  -0.72563   0.98814
O    -2.07889  -0.89667   2.09980
C    -0.17070  -0.56665   0.68991
Cl    0.81001  -0.40836   2.12363
C    -0.52610   1.93935   0.10073
C     0.53849   2.47139   0.88524
N     1.41549   2.86606   1.54003
C    -1.86428   2.22742   0.50316
N    -2.94762   2.43873   0.87064
N    -0.26878   1.60983  -1.17458
C     0.19147   0.71479  -1.84743
C     0.67024   0.47605  -3.20865
C     0.42557  -0.93115  -0.53963
Cl   -0.33997  -2.20169  -1.51765
C     1.93921  -1.01325  -0.60812
O     2.56916  -2.00150  -0.89836
O     2.46485   0.17645  -0.33973
C     3.89582   0.27383  -0.27981
H    -4.00909  -1.77859   0.41385
H    -4.18580  -0.01427   0.71586
H    -4.19956  -0.64284  -0.97224
H     1.77324   0.43499  -3.17676
H     0.36032   1.29397  -3.88246
H     0.30125  -0.48958  -3.57821
H     4.28771  -0.41401   0.48102
H     4.33098   0.03673  -1.26078
H     4.10626   1.31267  -0.00435
29

C    -3.78253  -0.77424   0.03231
O    -2.36475  -0.60703  -0.11381
C    -1.62366  -0.72254   0.98722
O    -2.07755  -0.89727   2.09876
C    -0.17249  -0.55018   0.68676
Cl    0.81042  -0.41202   2.12078
C    -0.52433   1.92456   0.10210
C     0.53834   2.46704   0.88540
N     1.41397   2.86498   1.53948
C    -1.86283   2.22374   0.50401
N    -2.94549   2.43897   0.86994
N    -0.26988   1.61656  -1.18188
C     0.19436   0.69335  -1.82923
C     0.66837   0.47340  -3.20028
C     0.42250  -0.90847  -0.55677
Cl   -0.33975  -2.20295  -1.51488
C     1.93884  -1.00919  -0.61054
O     2.56516  -2.00039  -0.89564
O     2.46770   0.17850  -0.33958
C     3.89791   0.27368  -0.27893
H    -4.00901  -1.77890   0.41373
H    -4.18607  -0.01469   0.71603
H    -4.19988  -0.64300  -0.97215
H     1.77282   0.43491  -3.17638
H     0.35818   1.29498  -3.87699
H     0.30121  -0.48953  -3.57849
H     4.28805  -0.41415   0.48132
H     4.33152   0.03651  -1.26052
H     4.10722   1.31256  -0.00413
29

C    -3.78301  -0.77497   0.03232
O    -2.36578  -0.60641  -0.11454
C    -1.62335  -0.71945   0.98629
O    -2.07620  -0.89788   2.09773
C    -0.17427  -0.53371   0.68362
Cl    0.81082  -0.41567   2.11792
C    -0.52256   1.90978   0.10347
C     0.53819   2.46269   0.88555
N     1.41245   2.86391   1.53893
C    -1.86137   2.22007   0.50486
N    -2.94336   2.43921   0.86924
N    -0.27098   1.62329  -1.18917
C     0.19725   0.67190  -1.81103
C     0.66650   0.47075  -3.19191
C     0.41943  -0.88579  -0.57392
Cl   -0.33954  -2.20420  -1.51211
C     1.93846  -1.00514  -0.61295
O     2.56117  -1.99929  -0.89292
O     2.47055   0.18056  -0.33944
C     3.90001   0.27353  -0.27804
H    -4.00894  -1.77921   0.41361
H    -4.18634  -0.01512   0.71620
H    -4.20020  -0.64315  -0.97207
H     1.77240   0.43482  -3.17599
H     0.35605   1.29598  -3.87152
H     0.30118  -0.48948  -3.57876
H     4.28838  -0.41429   0.48163
H     4.33206   0.03628  -1.26025
H     4.10819   1.31245  -0.00392
29

C    -3.78349  -0.77571   0.03234
O    -2.36682  -0.60579  -0.11526
C    -1.62305  -0.71636   0.98536
O    -2.07485  -0.89848   2.09669
C    -0.17606  -0.51723   0.68047
Cl    0.81123  -0.41933   2.11507
C    -0.52079   1.89500   0.10484
C     0.53804   2.45834   0.88571
N     1.41093   2.86284   1.53838
C    -1.85991   2.21639   0.50571
N    -2.94123   2.43945   0.86854
N    -0.27208   1.63002  -1.19647
C     0.20015   0.65045  -1.79283
C     0.66463   0.46810  -3.18354
C     0.41636  -0.86311  -0.59106
Cl   -0.33932  -2.20545  -1.50933
C     1.93809  -1.00108  -0.61536
O     2.55717  -1.99818  -0.89020
O     2.47340   0.18262  -0.33929
C     3.90211   0.27338  -0.27715
H    -4.00886  -1.77951   0.41348
H    -4.18660  -0.01555   0.71637
H    -4.20052  -0.64331  -0.97199
H     1.77197   0.43474  -3.17561
H     0.35391   1.29699  -3.86605
H     0.30115  -0.48943  -3.57904
H     4.28871  -0.41442   0.48193
H     4.33259   0.03606  -1.25999
H     4.10916   1.31235  -0.00370
29

C    -3.78397  -0.77644   0.03235
O    -2.36786  -0.60517  -0.11598
C    -1.62275  -0.71326   0.98443
O    -2.07351  -0.89909   2.09566
C    -0.17784  -0.50076   0.67733
Cl    0.81164  -0.42298   2.11221
C    -0.51902   1.88022   0.10622
C     0.53789   2.45400   0.88587
N     1.40941   2.86177   1.53783
C    -1.85846   2.21271   0.50656
N    -2.93910   2.43968   0.86784
N    -0.27318   1.63675  -1.20377
C     0.20304   0.62900  -1.77463
C     0.66275   0.46545  -3.17517
C     0.41329  -0.84042  -0.60821
Cl   -0.33910  -2.20671  -1.50656
C     1.93771  -0.99703  -0.61778
O     2.55317  -1.99708  -0.88748
O     2.47625   0.18467  -0.33915
C     3.90421   0.27323  -0.27627
H    -4.00878  -1.77982   0.41336
H    -4.18687  -0.01598   0.71655
H    -4.20084  -0.64346  -0.97190
H     1.77155   0.43466  -3.17523
H     0.35177   1.29799  -3.86058
H     0.30112  -0.48938  -3.57932
H     4.28905  -0.41456   0.48224
H     4.33313   0.03583  -1.25972
H     4.11012   1.31224  -0.00349
29

C    -3.78445  -0.77718   0.03236
O    -2.36890  -0.60455  -0.11671
C    -1.62245  -0.71017   0.98350
O    -2.07216  -0.89969   2.09462
C    -0.17963  -0.48429   0.67418
Cl    0.81204  -0.42664   2.10936
C    -0.51725   1.86543   0.10759
C     0.53774   2.44965   0.88603
N     1.40790   2.86069   1.53728
C    -1.85700   2.20903   0.50740
N    -2.93697   2.43992   0.86714
N    -0.27428   1.64348  -1.21106
C     0.20593   0.60756  -1.75644
C     0.66088   0.46280  -3.16680
C     0.41022  -0.81774  -0.62535
Cl   -0.33889  -2.20796  -1.50379
C     1.93734  -0.99297  -0.62019
O     2.54917  -1.99597  -0.88476
O     2.47910   0.18673  -0.33901
C     3.90631   0.27308  -0.27538
H    -4.00871  -1.78013   0.41324
H    -4.18714  -0.01640   0.71672
H    -4.20116  -0.64362  -0.97182
H     1.77113   0.43458  -3.17485
H     0.34963   1.29900  -3.85511
H     0.30108  -0.48933  -3.57960
H     4.28938  -0.41470   0.48254
H     4.33367   0.03561  -1.25946
H     4.11109   1.31213  -0.00328
29

C    -3.78493  -0.77791   0.03238
O    -2.36993  -0.60392  -0.11743
C    -1.62214  -0.70708   0.98257
O    -2.07081  -0.90030   2.09359
C    -0.18141  -0.46782   0.67104
Cl    0.81245  -0.43029   2.10650
C    -0.51548   1.85065   0.10896
C     0.53759   2.44530   0.88618
N     1.40638   2.85962   1.53673
C    -1.85555   2.20535   0.50825
N    -2.93484   2.44016   0.86643
N    -0.27537   1.65021  -1.21836
C     0.20882   0.58611  -1.73824
C     0.65901   0.46016  -3.15843
C     0.40715  -0.79506  -0.64250
Cl   -0.33867  -2.20921  -1.50101
C     1.93697  -0.98892  -0.62260
O     2.54517  -1.99487  -0.88204
O     2.48195   0.18878  -0.33886
C     3.90841   0.27293  -0.27450
H    -4.00863  -1.78044   0.41312
H    -4.18740  -0.01683   0.71689
H    -4.20148  -0.64378  -0.97173
H     1.77071   0.43450  -3.17447
H     0.34750   1.30000  -3.84964
H     0.30105  -0.48928  -3.57988
H     4.28971  -0.41484   0.48284
H     4.33421   0.03538  -1.25919
H     4.11206   1.31203  -0.00306
29

C    -3.78541  -0.77865   0.03239
O    -2.37097  -0.60330  -0.11815
C    -1.62184  -0.70399   0.98165
O    -2.06947  -0.90090   2.09255
C    -0.18320  -0.45134   0.66789
Cl    0.81286  -0.43395   2.10365
C    -0.51371   1.83587   0.11033
C     0.53744   2.44095   0.88634
N     1.40486   2.85855   1.53619
C    -1.85409   2.20168   0.50910
N    -2.93271   2.44040   0.86573
N    -0.27647   1.65694  -1.22565
C     0.21171   0.56466  -1.72004
C     0.65714   0.45751  -3.15006
C     0.40407  -0.77238  -0.65964
Cl   -0.33846  -2.21046  -1.49824
C     1.93659  -0.98486  -0.62502
O     2.54117  -1.99376  -0.87932
O     2.48480   0.19084  -0.33872
C     3.91051   0.27278  -0.27361
H    -4.00855  -1.78075   0.41300
H    -4.18767  -0.01726   0.71707
H    -4.20180  -0.64393  -0.97165
H     1.77028   0.43442  -3.17409
H     0.34536   1.30101  -3.84417
H     0.30102  -0.48923  -3.58016
H     4.29004  -0.41498   0.48315
H     4.33474   0.03515  -1.25893
H     4.11303   1.31192  -0.00285
29

C    -3.78589  -0.77938   0.03241
O    -2.37201  -0.60268  -0.11888
C    -1.62154  -0.70090   0.98072
O    -2.06812  -0.90151   2.09152
C    -0.18498  -0.43487   0.66475
Cl    0.81326  -0.43761   2.10079
C    -0.51194   1.82108   0.11171
C     0.53729   2.43661   0.88650
N     1.40334   2.85747   1.53564
C    -1.85263   2.19800   0.50995
N    -2.93058   2.44063   0.86503
N    -0.27757   1.66367  -1.23295
C     0.21460   0.54321  -1.70184
C     0.65527   0.45486  -3.14169
C     0.40100  -0.74969  -0.67679
Cl   -0.33824  -2.21172  -1.49547
C     1.93622  -0.98081  -0.62743
O     2.53717  -1.99266  -0.87660
O     2.48765   0.19290  -0.33857
C     3.91261   0.27263  -0.27272
H    -4.00847  -1.78105   0.41287
H    -4.18794  -0.01769   0.71724
H    -4.20212  -0.64409  -0.97156
H     1.76986   0.43434  -3.17371
H     0.34322   1.30201  -3.83870
H     0.30098  -0.48918  -3.58044
H     4.29038  -0.41511   0.48345
H     4.33528   0.03493  -1.25866
H     4.11399   1.31181  -0.00264
