19

C -5.727674525 1.836616373 -0.449397773
C -3.585306927 0.080246445 -1.228963713
C -1.284639202 0.283701522 0.490347533
C 0.862266195 -1.486171482 -0.279209737
C 3.088863497 -1.330419367 1.482548707
C 5.360591351 -0.671182683 0.814355099
C 7.628954605 -0.017175399 0.128275800
H -6.362179607 1.425210845 1.472376331
H -5.124975762 3.811304773 -0.496263264
H -7.355148180 1.647204248 -1.702104288
H -4.260980771 -1.876290399 -1.234005124
H -3.020747733 0.495778474 -3.176153140
H -1.845300818 -0.128258887 2.441574341
H -0.585915197 2.231837361 0.492918071
H 0.157259399 -3.433415730 -0.299670501
H 1.477974965 -1.055923608 -2.202541202
H 2.755414613 -1.776557324 3.461790818
H 8.219264096 1.944475043 0.154499132
H 8.995798840 -1.416214785 -0.480728449

