19

C -5.641559592 1.409091803 0.365502871
C -3.453154468 0.335383830 -1.163820526
C -1.047463021 0.023656272 0.386984598
C 1.149317143 -1.017259491 -1.158275578
C 3.535579975 -1.441406365 0.323210819
C 5.537290514 -2.955649710 0.124631633
C 6.475926928 -0.404261192 0.829364154
H -6.092560759 0.191797299 1.971195770
H -5.183122352 3.280238971 1.109231554
H -7.345862690 1.589158740 -0.781403623
H -3.994342285 -1.498899600 -1.953743318
H -3.068110165 1.566255506 -2.782914154
H -1.405541612 -1.237140067 1.987275412
H -0.512350351 1.854184137 1.199031547
H 0.672449952 -2.857811691 -1.965147003
H 1.547968286 0.237856105 -2.756009046
H 4.006324207 0.605156219 1.336860612
H 7.558826944 0.656850584 -0.566722572
H 6.860683614 0.086244757 2.786322558

