13

C -2.039308265 -1.555276499 1.592409542
C -2.061824730 0.560346353 -0.340761254
N -1.749002907 3.004526229 0.310067075
C 0.673228991 1.469706412 -1.369119919
C 2.778949527 0.208166353 -0.171926546
C 4.568369046 -0.818330818 0.752243260
H -0.834015526 -1.074046743 3.188244080
H -3.970726340 -1.811440648 2.271546668
H -1.412570032 -3.337043345 0.761336470
H -3.250340877 0.093466950 -1.992435536
H 0.840414611 3.565029618 -1.109971136
H 0.554541700 1.230138480 -3.408202456
H 6.160744535 -1.720446839 1.586811965

