15

N 4.450230436 2.219093596 -0.387535113
C 2.114609297 1.405653446 -0.261722155
O 0.872676753 3.093267276 1.021752919
N 1.033036984 -0.691289690 -1.164244297
C -1.663023751 -1.251248819 -1.001221007
C -2.640476841 -1.786055844 1.659943705
O -3.234133112 0.391217490 3.046706617
H 5.827885095 1.444181125 -1.444092667
H 3.115595884 3.941405293 0.876380862
H 2.157390920 -1.933514310 -2.046901468
H -1.973454655 -2.909758467 -2.185811759
H -2.745566022 0.308502439 -1.814696004
H -1.257710813 -2.977865009 2.654036174
H -4.391054588 -2.871395213 1.500415236
H -1.885907366 1.606748028 2.820580401

