11

O 3.640725999 -0.411324950 -0.810329926
C 1.095519607 -0.304657564 -0.319751978
C -0.198583287 -2.654994397 -1.089432893
N -2.551610863 -2.967933119 -0.844625129
C -1.219599515 3.533394053 1.720995673
C -0.054239789 1.629470492 0.704701945
H 4.411498666 1.142365464 -0.279787880
H 1.091756879 -4.067596574 -1.880293235
H -3.073806763 -4.703949450 -1.479379561
H -2.019401834 5.032835721 0.571665415
H -1.458426278 3.678467175 3.753696132

