15

O 5.425387773 -1.910975339 -0.031413730
C 3.198205034 -1.429419757 0.097369102
N 1.240067290 -3.143662398 0.291539274
C -1.172002851 -1.901877990 -0.066669141
C -0.556200104 0.819104264 0.736720331
C -2.143291900 2.812971854 -0.568953110
N 2.108417137 0.942509522 0.079521943
H 1.565911859 -4.901979822 -0.345736260
H -1.784181651 -1.937677245 -2.048391687
H -2.654305573 -2.733512253 1.098106604
H -0.801913048 0.977844830 2.792312158
H -4.142058624 2.546855254 -0.128602987
H -1.611032528 4.707211060 0.049711457
H -1.894288642 2.706537036 -2.613348613
H 3.199228982 2.391147982 0.644922141

