14

C 2.376331849 1.186715371 0.322126060
C 1.755988827 -1.703168752 0.504590210
C -0.387929895 -1.209013629 -1.407128169
O -3.211664628 -0.963321624 -0.802892455
C -2.370825943 1.035021499 1.036103405
C -0.278765085 1.602894385 -0.900988554
H 2.757579162 2.168166932 2.094897772
H 3.929778885 1.562700780 -0.977477033
H 1.198175426 -2.360912194 2.369897634
H 3.174871150 -3.011693507 -0.219044486
H -0.230570908 -2.104057690 -3.253448532
H -1.891099899 0.074168746 2.799455229
H -3.882854718 2.394460105 1.347823707
H -2.875328564 0.773110182 -2.198849962

