15

C 3.945338701 0.806905610 0.465146750
N 1.682364644 0.032115971 -0.973052164
C 0.711521873 -2.446184706 -0.242893774
C -1.703553198 -2.120583099 0.368939433
C -2.378802345 0.537294642 0.038786667
N -4.801120301 1.415042456 0.717710612
C -0.433949564 1.997057485 -0.762422156
H 5.465842992 -0.555678635 0.179106031
H 4.500764226 2.678114932 -0.173500896
H 3.421922680 0.890651922 2.451229235
H 1.926818198 -4.082887425 -0.242248565
H -2.956301004 -3.596589802 1.029118353
H -6.202796005 0.495731382 -0.196460917
H -4.936389920 3.283971653 0.349782429
H 2.118135318 0.032629447 -2.849134012

