11

C -3.157643405 -0.109772622 0.323926421
N -0.445187576 -0.009986711 0.034358415
N 0.868428516 2.072156997 0.189492363
C 3.260875590 1.386366882 0.036571378
C 3.531833612 -1.295326000 -0.006681486
N 1.028216538 -2.099213453 0.035950981
H -3.680407772 -0.108401985 2.317779479
H -3.832771892 -1.838442888 -0.558510729
H -3.978656633 1.527230280 -0.607157288
H 4.728956195 2.798871228 0.048719445
H 2.224437893 -2.746648136 -1.710886356

