14

C -3.539718985 0.479875332 1.012071966
C -0.754714568 0.702065286 1.449873226
C 1.307702818 -2.398282756 -0.782732706
O 2.567887396 -0.575791405 -2.153245163
C 2.737445113 1.717388393 -0.790395677
O 0.276392911 2.392723938 -0.168808592
H -4.279213056 -1.214702007 1.917206163
H -4.433190908 2.107133748 1.918966254
H -4.072328089 0.505903059 -0.986668906
H 0.461853959 -1.229416000 1.467929238
H 2.571404913 -3.651200581 0.275316070
H -0.077353728 -3.396723636 -1.924626229
H 3.874852994 1.469870497 0.928408877
H 3.523831377 3.137747329 -2.045940637

