14

O -4.662782654 -2.034445792 1.072759159
C -2.308729316 -1.259612803 0.296676079
C -1.984427463 1.080749753 -0.568144232
N 0.259269971 2.139507478 -1.471099046
C 2.566224153 0.830178267 -1.572160484
C 3.654027139 -0.247075814 0.425825650
O 2.743608814 -0.254406817 2.814877321
H -4.475963385 -3.326865072 2.324723750
H -0.814157131 -2.662673148 0.303944608
H 1.129334328 0.591993728 2.846666200
H -3.582752641 2.362483917 -0.560333937
H 0.013034934 3.448412634 -2.820590814
H 3.525598952 0.742053611 -3.377338240
H 5.417827149 -1.264577492 0.253684375

