13

C -3.062296272 -0.240334934 -0.292373437
N -0.479224794 0.243948128 -1.030218911
C 1.145104868 2.183584811 0.620860070
C 3.055054047 0.290643657 0.973242327
O 5.056736127 0.132546770 2.043416284
C 1.535086552 -1.643096721 -0.595744079
H -3.888468811 -1.673709131 -1.522094042
H -3.152236483 -0.869822718 1.680046498
H -4.159846124 1.492427440 -0.480051738
H 0.502075551 2.088115091 -1.800754020
H 0.215443046 3.530023632 1.843512702
H 0.815656969 -3.143735814 0.622409702
H 2.371221765 -2.439235540 -2.299729476

