10

N -2.087756119 1.794195593 -2.132876127
C -0.497769716 0.624416194 -0.440836784
O 2.026808653 0.481066994 -0.869201868
C 3.422783262 -0.922299279 0.749583413
O 2.625153977 -1.940207361 2.586808411
C -2.252587971 -0.237773845 1.226829381
O -4.303359958 0.062070870 -0.158736522
H -1.716450919 1.260592664 -3.973842593
H 5.386941522 -0.931425484 0.096905609
H -2.292090220 -0.639162804 3.226005948

