14

N 2.626321998 1.139039357 1.329509407
C 2.402207812 0.199032078 -1.096669486
O 1.825345763 -2.386886763 -1.194343666
C -0.582716156 -1.379415789 -2.065409540
C -1.875139253 -0.755895363 0.518926712
C -0.125446407 0.946368343 2.194885845
C 0.743127825 1.044812472 -2.836449112
H 3.722934112 -0.003650214 2.401978154
H -1.653624196 -2.611515295 -3.329450312
H -2.291748180 -2.541807682 1.463652448
H -3.666084725 0.220913066 0.206121953
H -0.125544919 0.262372410 4.137775389
H -0.852482497 2.871588040 2.201170130
H 0.043214144 2.944914686 -3.082751650

