14

N 4.875845816 0.413589390 0.854488290
C 2.758814949 -0.116111406 -0.039756190
O 1.707047150 -2.428396789 -0.604381337
C -0.579281371 -1.244603389 -1.557918374
C -2.626123974 -1.009657765 0.476634206
C -1.542929218 1.607644854 1.237293286
C 0.487282303 1.378300454 -0.863748496
H 5.914839557 -1.168353015 1.193514227
H -1.036293266 -1.904116276 -3.449711235
H -2.565821679 -2.495059089 1.899920592
H -4.528853153 -0.907733119 -0.305757517
H -0.796330835 1.785012129 3.146577509
H -2.858654981 3.151703088 0.896580484
H 0.790458681 2.937780932 -2.160758280

