12

O 4.257515769 1.241934982 -3.198956919
C 2.995181382 0.118734573 -1.643403593
C 1.104310405 1.188063463 -0.071299820
C -1.210820868 2.681369664 -0.448256114
N -1.181096346 0.136980408 0.621316873
C -2.567620604 -1.631336332 1.447862236
O -1.670462960 -3.902306481 2.080096832
H 3.357086555 -1.923730442 -1.255383086
H 0.141155247 -3.941485342 1.889055877
H -2.114309303 2.791281218 -2.293754181
H -1.690437459 4.185076104 0.865155737
H -4.576591962 -1.382121461 1.712655499

