12

O 4.323366488 1.438294950 -2.685347632
C 2.795481418 -0.052255935 -1.864792095
C 0.963896063 0.479472991 0.106643141
C -0.984599637 2.478993035 -0.210909819
N -1.652421196 -0.216877008 -0.349908927
C -2.677999167 -1.775216564 1.265131956
O -1.188231403 -3.142281386 2.588177631
H 2.817151947 -2.057227744 -2.504242799
H 0.500466355 -2.137927743 2.316962474
H -1.164070650 3.459287782 -2.002767349
H -1.716185904 3.490420396 1.419163797
H -4.703844551 -1.980482792 1.505594295

