16

C 6.235154882 0.491460034 0.525888387
C 3.676925763 -0.166342424 -0.252302040
C 1.576871099 -0.704576449 -0.907043709
C -0.998630703 -1.366340699 -1.648508141
N -2.840223783 -0.856815015 0.351676501
C -5.689821477 -0.500257862 -0.093681358
C -3.989364218 1.660324919 0.532573652
H 7.101575280 1.775066179 -0.834291124
H 7.412670744 -1.194049171 0.669123675
H 6.214423755 1.424012041 2.364071079
H -1.593988125 -0.293725461 -3.305876659
H -1.121618935 -3.369360270 -2.134120190
H -2.404123068 -1.709207353 2.001872016
H -5.893999280 -0.612047351 -2.155483752
H -3.201537510 2.957265766 -0.861196818
H -4.019330323 2.455546976 2.426598054

