16

C 6.396608773 0.606854667 0.377721689
C 3.814571940 -0.158416573 -0.199166287
C 1.689461624 -0.790764249 -0.656519825
C -0.916790897 -1.523409575 -1.211257301
N -2.629125161 -0.665131232 0.774919595
C -5.735749003 -0.302524177 -0.194476119
C -3.915224593 1.736398849 0.413110420
H 7.101273945 1.935436332 -1.032137720
H 7.652510438 -1.027196918 0.415596620
H 6.478657828 1.524009544 2.222260097
H -1.487305469 -0.753684081 -3.049951314
H -1.057481801 -3.579034151 -1.344568257
H -4.271020867 -1.907019330 1.339488975
H -5.631952489 -0.745349954 -2.217047741
H -3.085398022 2.809383699 -1.129633491
H -4.148155674 2.842847082 2.126126441

