14

C -2.196887784 -1.511651397 1.230845521
C -0.439799287 0.129705775 -1.756526908
C 0.412541386 2.475829973 -0.420491407
N 2.139063657 1.312496845 1.354217217
C 3.316903778 -0.560813153 0.098982305
O 5.149359919 -1.805877578 0.368167612
O 1.548736573 -1.292924933 -2.081443659
H -3.325777762 -0.488206946 2.622859170
H -1.501780412 -3.311495495 1.970981287
H -3.494405375 -2.035052961 -0.280403591
H -1.848380750 0.038889146 -3.245600291
H -1.081357205 3.529464708 0.517944678
H 1.370869219 3.696567633 -1.791723303
H -0.095542984 -0.345829670 1.684599151

