13

O 3.840906785 -2.032329847 0.501877225
C 2.510338319 0.242726137 0.598748894
C -0.304349387 -0.114211645 -0.086704773
C -1.311996673 -2.045915598 2.470805626
C -2.020199544 -3.021159787 0.436571956
C -1.759033856 2.205024434 0.082760404
C -2.896357210 4.155472561 0.199906228
H 3.183019460 -3.107933044 1.813502113
H 2.619045438 1.150449996 2.450436816
H 3.348916022 1.494388182 -0.811443409
H -0.298414400 -0.732221781 -2.068085960
H -2.767035692 -4.063105885 -1.128450749
H -3.918928210 5.883741317 0.316859185

