12

C 4.925701308 0.533763348 1.485580414
C 2.296960460 1.193511147 0.681058467
C 0.492682932 2.035479907 2.200149734
C -2.136090286 2.694650394 1.394993803
H -2.565193988 4.673289758 1.807198440
H -3.530959670 1.555657997 2.407444205
H -2.402164915 2.387750519 -0.626582387
H 0.922518241 2.279684376 4.197854337
H 1.866929300 0.949453755 -1.316677354
H 5.192301659 0.840827743 3.507085720
H 6.320464470 1.672397302 0.472473748
H 5.354288132 -1.444983371 1.073462893

