15

N 2.458184334 0.082853114 -2.662551374
C 3.259913247 -0.363341856 -0.295827989
O 5.426919472 -0.180465065 0.420345804
C 1.249004107 -1.249422946 1.592941991
N -1.336965775 -0.818289433 0.845177836
C -3.016156662 0.890252812 1.028150209
C -2.961970693 -0.694966417 -1.420020580
H 3.743607811 0.664073060 -3.933549701
H 0.594522201 -0.046389602 -3.127388323
H 1.531709611 -3.271566905 1.878585036
H 1.603157510 -0.282745982 3.375124293
H -3.903898897 1.985732167 2.497121593
H -2.098570001 3.422010345 -0.763753355
H -4.247486047 -2.312423957 -1.427935641
H -2.404914958 2.294654239 -1.954276864

