15

O 4.309708134 0.935746268 -1.398335538
C 1.698664174 0.848021798 -0.794630497
C 1.105651373 -1.604617248 0.569486410
C -1.533755240 -2.258513510 1.382532118
C -3.698825723 -1.037118188 1.074630121
C 0.364406622 3.283641537 -0.459997889
C 0.045287646 2.151380382 -2.605337723
H 5.268464670 0.636032832 0.112391083
H 2.292705874 -1.685583112 2.272030967
H 1.799555556 -3.148293588 -0.624594660
H -1.612048407 -4.054537565 2.382212412
H -3.854067556 0.755920156 0.112182080
H -5.431286912 -1.843121397 1.810379321
H 0.001282066 4.891307650 0.733035025
H -0.764448245 2.137330721 -4.471727469

