11

C -3.631091854 0.753166731 0.183882352
C -1.585971245 -1.165440418 -0.223625238
O -1.866712548 -3.345300106 -0.656794950
C 2.862884906 -1.437041627 -0.149535351
O 0.742141351 0.021991631 -0.038211226
N 4.775368833 0.144506828 -0.012030223
H -5.464650745 -0.153913884 0.016993665
H -3.425858356 1.602370780 2.050719679
H -3.452459294 2.263088386 -1.207301216
H 6.533506127 -0.565459460 -0.048481661
H 4.566957042 2.044906636 0.132814072

