11

C -3.217027122 0.468991436 0.472189760
C -1.240121752 -0.739084586 -1.158450548
O -1.543964069 -2.426987488 -2.619805108
C 1.775198744 -0.207864904 0.122752508
O 0.954248066 1.200126077 -1.690940523
N 4.201128571 -0.151699371 0.665455641
H -4.135725887 -1.002934800 1.578335655
H -2.444567289 1.903088718 1.721017348
H -4.624285947 1.314315726 -0.776947819
H 4.893493156 -1.247691352 2.047424696
H 5.407711181 0.931849312 -0.348961872

