10

C -1.488288656 3.588731791 1.267650130
C -0.801579341 0.847294840 1.663653634
C -2.654481488 -1.083958697 0.673407041
H -1.833723146 -2.965545450 0.775255229
H -4.375407448 -1.027193781 1.814801186
H -3.200562978 -0.648646281 -1.268544254
O 1.126082015 0.233452740 2.709498350
H -0.217888351 4.797300106 2.339702418
H -1.327603694 4.043235150 -0.741362519
H -3.445565384 3.946241215 1.814715940

