12

N -2.789379360 -1.690768766 0.303735302
C -1.781655276 -0.211884540 -1.396732899
C 1.764072150 1.421158006 0.598572621
O 1.987572383 0.231841371 2.622449194
C 3.394179006 0.823816107 -1.534945257
N 4.665631737 0.395816988 -3.241346480
H -1.089618824 -2.408476846 2.149306936
H -3.986989021 -0.723128249 1.458975300
H -0.716785799 -1.082326352 -2.915995414
H -2.451208769 1.709422668 -1.666809760
H 0.887224242 3.286014012 0.564790913
H 0.176652052 -1.661370939 2.979432291

