12

N 3.048928840 -0.956546899 0.611390236
C 0.945671109 0.059361324 -0.768901535
C -1.192591928 -1.758145458 -1.512469006
O -3.037095432 -0.087531377 -0.347682017
C -1.177361434 1.469022161 0.566479969
N -1.291940064 3.306699030 2.039346154
H 4.363990516 0.390270756 0.929821088
H 2.497869282 -1.627431534 2.315195921
H 1.643083360 1.136308419 -2.381572211
H -1.573115967 -2.014896103 -3.518808882
H -1.133301903 -3.576428635 -0.542567412
H -3.094136380 3.659318278 2.609767695

