12

N 2.978744091 -1.319818419 0.443527717
C 0.991069001 0.051077029 -0.736522703
C -1.610388132 -1.227180473 -1.115991747
O -3.178649185 0.906712780 -0.903464624
C -0.306625657 2.111257206 0.767646379
N -1.108365814 3.235190754 2.546806953
H 4.653222000 -0.410788722 0.430864227
H 2.551660261 -1.872604526 2.219374221
H 1.621198631 0.840434472 -2.531772859
H -1.765291533 -2.117252986 -2.970830334
H -1.941343483 -2.661003556 0.350677724
H -2.943915588 2.292444109 1.418974825

