17

C -3.211479567 -0.418921101 0.871721269
C -2.306091882 1.649852454 -0.431796183
C 0.059128699 3.027118415 0.224290857
C 1.166975424 1.260275077 -1.655796021
C 2.234330515 -1.086506841 -1.212053367
C 3.177251940 -1.966972667 1.244322009
O 2.710115459 -1.031123315 3.276800766
H -2.628503857 -0.726892206 2.812298355
H -1.690516582 -2.636978655 -0.060776313
H -5.048588081 -1.166308728 0.358443837
H -3.299181284 2.253459834 -2.118359534
H 0.094979959 5.000301573 -0.338272749
H 0.688694491 2.740206627 2.151178918
H 1.019502955 1.841830184 -3.614605827
H 2.980915877 -2.093771306 -2.834526297
H -0.175078307 -2.951747407 -0.661691080
H 4.352475924 -3.699428754 1.136352714

