14

C 5.165515226 -0.725490407 1.355763391
C 2.855351646 -0.403129284 0.570643754
C 0.551069517 -0.086239296 -0.192966227
C -1.053514019 2.221286302 -0.789322218
C -3.416891984 0.497679822 -0.640852503
C -1.675461380 -1.857217355 -0.597862216
H 6.702441879 -1.029397655 0.034468586
H 5.623409585 -0.703002515 3.353619569
H -0.940057678 3.783933829 0.547042756
H -0.703251146 2.946535712 -2.689113327
H -4.447747581 0.735153937 1.125823897
H -4.747269304 0.628327776 -2.205720099
H -1.583638189 -2.826783163 -2.416835313
H -2.016207214 -3.251815638 0.878560150

