14

C 5.664945255 -0.182735023 0.476074866
C 3.249153411 -0.692474680 0.345381937
C 0.713685004 -0.212761260 0.184111443
C -0.796090159 2.170536441 -0.222005327
C -3.018643485 0.442276642 -1.033946037
C -1.623864090 -1.867080951 0.119123743
H 6.687128710 0.013662380 -1.306428916
H 2.410105752 -1.617250729 2.188167378
H -1.179980198 3.186257449 1.532809167
H -0.012748489 3.494108744 -1.595539382
H -4.864286135 0.880984952 -0.239532991
H -3.180565802 0.303797984 -3.080724257
H -1.501824651 -3.585185626 -1.011055917
H -2.360895961 -2.345361297 1.986969919

