11

N 5.607026907 0.552986020 1.102880770
C 3.721817813 -0.220164394 0.367474895
C 1.296394697 -1.191436870 -0.516020596
C -0.860317188 0.254911450 0.700739360
C -1.899555856 2.495033351 -0.590129759
O -3.340384116 -0.580456346 -0.129505520
H 1.185956551 -3.201702823 -0.051012458
H 1.202682498 -0.959770148 -2.566939415
H -0.835016987 0.105022096 2.755443583
H -2.988525294 3.549631619 0.828764034
H -3.259249179 -1.017558993 -1.896963001

