14

C -3.372735925 -0.137134779 -0.031184903
C -0.713146640 0.500917225 -0.952650095
C 0.758669594 2.283530857 0.699127140
C 2.852926107 1.134098687 1.425681916
N 0.614385301 -3.853268410 -2.056453089
C 1.004342249 -1.794417731 -0.955473175
O 3.108079762 -1.286484104 0.495979749
H -4.577410724 1.535295631 -0.079901438
H -3.323196056 -0.846904535 1.904499399
H -4.200076976 -1.590499993 -1.233796688
H -0.831395270 1.212121756 -2.891644233
H 0.195878503 4.175208880 1.206868431
H 4.393227225 1.752628422 2.609741673
H 2.042600093 -5.100222145 -1.746466630

