14

C -3.485493785 0.163344657 0.171897444
C -0.875564821 0.493373948 -0.946891759
C 0.823574241 2.329565379 0.449525934
C 2.640429068 0.802040812 1.061319532
N 2.670176702 -2.159987612 -2.265342111
C 0.974388880 -1.790839326 -0.478572517
O 0.914952591 -2.784476957 1.730139509
H -4.553797197 1.925554141 0.077324343
H -3.347604042 -0.433780434 2.137481370
H -4.523162205 -1.283932142 -0.868362376
H -0.887337380 0.930322319 -2.959604359
H 0.615028375 4.316528269 0.869275076
H 4.390004449 0.280105675 1.944459377
H 3.849612772 -3.569982042 -1.675410546

