14

C 4.275409472 0.379348932 0.938168556
N 2.278676963 0.405865721 -0.932115593
C -0.156967266 0.073265249 -0.281366085
N -1.967483857 0.259058227 -2.126568467
N -4.207781409 -0.586305596 -1.049180480
C -3.629692947 -0.797593115 1.518478845
C -1.141589051 -0.513026722 2.138319483
H 3.513145940 -0.504345320 2.631717317
H 5.888054957 -0.700302682 0.242854959
H 4.889855093 2.292470755 1.417046378
H 2.668526971 1.155451307 -2.632333519
H -5.716172026 0.486206066 -1.535595379
H -5.225805350 -1.180510549 2.746379946
H -1.648548089 -0.360726759 -3.901279888

