14

C 4.245321309 0.306417542 0.761437590
N 2.109839893 1.376308872 -0.577855062
C -0.217626700 0.268266333 -0.276053441
N -2.068080120 0.773164890 -2.198873810
N -4.175113940 0.137134666 -1.055400022
C -3.764448939 -0.863476848 1.317553753
C -1.252662561 -0.864310519 1.971289482
H 3.659742729 -0.101343366 2.690253587
H 4.936489112 -1.452929877 -0.089068594
H 5.779272155 1.679984383 0.794806241
H 2.454762059 2.015258061 -2.337218411
H -5.740498093 -0.040019902 -2.126072338
H -5.401665096 -1.497047064 2.366565725
H -0.693748148 -1.431577654 -1.892639912

