9

N -2.653014625 1.033274976 0.734904833
C -1.517441725 -1.176491253 1.301571602
O -2.559286931 -3.164210109 1.701644291
C 1.256299546 -1.045328273 1.419375484
C 3.543605037 -1.743810053 1.709260984
C 5.356104499 0.996512584 1.176044692
N 3.086475185 1.407602131 0.956249286
H -1.662041698 2.619932400 0.424763586
H -4.548239135 1.062169437 0.627353131

