14

C -2.696812543 -2.290973827 -0.405322953
C -0.590917246 -0.481758180 -0.156690894
N -0.546076766 1.654390726 0.948706860
O -2.757013038 2.621339301 1.937229569
C 2.097169808 -0.595423373 -1.263184140
C 3.087042160 1.604311056 0.172710952
O 3.792790409 -2.338994413 -0.723941531
H -3.525932791 -2.134339890 -2.290443891
H -1.936708590 -4.198809065 -0.218896822
H -4.170121170 -1.963617950 0.992960768
H -2.222178990 3.989215855 3.004254675
H 1.863759889 -0.128112339 -3.306927082
H 3.961097751 3.243704329 -0.715233824
H 3.674788709 1.151751129 2.074515885

