19

C -4.431663007 -1.370325810 -0.213748339
C -1.948914501 2.093875146 0.269478082
C 0.083731950 1.158233948 2.063561842
C 2.521479445 0.765306842 0.495234214
C 3.618391458 -1.904919674 0.561283997
C 1.687545498 1.541779678 -2.104942913
C -0.784328088 2.070187524 -2.220939178
H -2.771055234 -2.498842699 -0.611208142
H -5.420667596 -2.031822625 1.467015404
H -5.673240453 -1.256121024 -1.849326029
H -4.092440349 0.931192595 0.362334481
H 0.366388850 2.597751512 3.517424639
H -0.491804984 -0.549161064 3.069006254
H 3.974514164 2.075308077 1.170042241
H 2.220561687 -3.286194387 -0.073750001
H 4.193975145 -2.414385736 2.476380696
H 5.272543701 -2.070721806 -0.662491889
H 2.995782901 1.675888704 -3.678243299
H -1.786533094 2.596923604 -3.927549537

