15

O -2.691189625 3.110780427 -0.085070292
C -3.097500357 0.573233019 -0.787034327
C -1.538858653 -1.254048202 0.821057976
C 1.218283964 -0.791704426 0.636912216
O 2.282533214 -0.433520218 -1.537408685
C 3.063426876 -0.581034375 2.631258700
O 5.334262761 -0.328258675 1.839627406
H -1.254480893 3.750223987 -0.985936562
H -2.682088591 0.271753237 -2.789281208
H -5.099330138 0.180609818 -0.489602187
H -1.881751027 -3.192514351 0.183707458
H -2.102836209 -1.132203008 2.802452315
H 1.706206317 1.395918919 2.512113017
H 2.572972176 -1.252034378 4.527998656
H 4.157477372 -0.338213639 -0.911029292

