13

C -4.665090633 0.285415957 -0.293833666
C -1.875739354 -0.117897141 -0.415366035
N -0.987852650 -1.583590795 -2.198018123
O 1.616943044 -1.619918380 -1.860056196
C 1.956909895 -0.104416949 0.168358384
N 4.622772938 0.146745983 0.883933473
C -0.003329792 0.981961126 1.296718596
H -5.630549008 -0.748058952 -1.791172088
H -5.385570469 -0.336287233 1.535574819
H -5.094137908 2.294881195 -0.468855187
H 5.694320046 0.935750387 -0.511086144
H 5.416207295 -1.533918342 1.396915881
H 4.562246579 1.330316585 2.408676647

