13

C -4.508031224 0.341363585 -0.121757605
C -1.754940350 -0.163519022 -0.447683583
N -1.042867226 -1.604879353 -2.336272168
O 1.591276424 -1.781374085 -2.225586317
C 2.176792096 -0.384367346 -0.222595205
N 4.618886452 0.156095516 0.857818989
C 0.334864420 0.737981818 1.074729407
H -5.604938457 -0.633763233 -1.565158066
H -5.129931324 -0.288251415 1.740492034
H -4.878015222 2.366277467 -0.244732893
H 5.802457828 1.218830170 -0.214585261
H 5.546638932 -1.331693496 1.636324925
H 3.074935724 1.298282836 2.220799905

