12

N 0.353123691 2.836434826 1.702004397
C 0.004640808 0.578262751 0.306926766
C -2.193133729 0.304677331 -1.746426926
C -2.437057253 -1.015536949 0.617784181
C 1.930059607 -0.988032514 -0.325291767
N 3.679071018 -2.263698937 -1.029119809
H -0.048991528 2.590205005 3.548873102
H 2.037783937 3.684739308 1.430605975
H -1.773495741 -0.577822634 -3.562872514
H -2.986028154 2.193495404 -1.886479896
H 3.991583323 -3.997434898 -0.270655212
H -2.137675861 -3.055593659 0.546062801

