12

N 0.663961094 2.471680551 1.561545439
C 0.342018980 0.630322457 -0.360241836
C -2.373994314 0.409742891 -1.344593220
C -1.249908625 -1.737404089 0.091472212
C 2.516033670 -0.928926359 -0.777408175
N 3.432861398 -2.664639143 0.337855290
H 2.058297027 2.020636524 2.786114254
H 0.960649929 4.215966852 0.848370963
H -2.753814752 0.160508273 -3.342601710
H -3.531764051 1.819424741 -0.415178612
H 1.121038808 -2.990236706 1.437101985
H -0.889767417 -3.178838649 -1.324604869

