15

C 2.481871201 -1.442190148 -0.378919492
C 0.651772361 0.026964049 1.269087550
C -1.088491980 1.822632816 -0.138523010
O 0.017900884 3.406710234 -1.979917423
C -1.742123793 1.553187029 -2.803941760
C -0.942224986 -1.663228861 2.933777547
O -0.770567764 -3.920080811 3.027448116
H 3.499317548 -0.163422646 -1.632838777
H 1.497285170 -2.857334346 -1.507277285
H 3.847875226 -2.446004766 0.788728485
H 1.718897453 1.222148265 2.594547501
H -2.447232275 2.794994096 1.065993656
H -3.532181775 2.288536647 -3.486162408
H -2.340082896 -0.657715134 4.136529436
H -0.938919099 0.018493351 -3.901418140

