14

O 1.450577829 1.484973396 3.001178371
C 0.887379634 0.910231526 0.493443906
C 2.573226779 1.626846909 -1.395652940
C -1.876929542 1.239079152 -0.221379828
C -2.993920859 -1.296068814 0.249367768
C -0.227190547 -2.011115498 0.075167315
H 3.236877864 1.214204347 3.209848620
H 3.771407855 3.274012815 -1.174100523
H 2.573278898 0.666901244 -3.195445184
H -2.273965555 2.301929703 -1.933426400
H -3.821358192 -1.547563355 2.117261112
H -4.223718395 -2.068936544 -1.204051775
H 0.550698507 -3.038457603 1.676164396
H 0.353277723 -2.790473738 -1.726762304

