12

O 1.533030719 4.102977273 1.600608704
C 0.913392433 2.108305530 0.687125641
N 2.420448261 0.191370675 -0.096860501
C 1.051872810 -1.856368396 -1.305903024
C -1.699869952 -1.193144124 -1.330919955
O -2.372929208 -0.530528477 2.210616568
C -1.772956092 1.182569160 0.163207916
H 4.301459498 0.247964798 0.155359695
H 1.368137904 -3.691975844 -0.414451691
H 1.561914257 -2.063634955 -3.307686109
H -4.094812920 -1.083194983 1.983542164
H -3.169198437 2.656491948 -0.138092322

