12

O 1.691822005 4.211302894 1.437871198
C 0.943636063 2.205211082 0.659690880
N 2.353147725 0.203878035 -0.115467709
C 0.895413163 -1.869729326 -1.142143799
C -1.827961995 -1.071448729 -0.986946035
O -2.373182223 -0.449800644 2.225603627
C -1.795079702 1.397573298 0.319435392
H 4.238532468 0.189165988 0.106704047
H 1.217428069 -3.654918466 -0.157125342
H 1.297586982 -2.180956825 -3.151242638
H -3.408980664 -1.785020501 0.941281068
H -3.191872619 2.875577687 0.068884486

