14

O -2.876824868 3.569095647 0.421381071
C -1.133345007 1.711433148 0.194367913
C -2.086496049 -0.882501930 -0.422326142
C 0.272615387 -2.530943855 -0.022070603
C 2.549649989 -0.705217463 -0.128763557
C 1.370701374 1.835406854 0.369226331
H -2.037487722 5.144889791 0.744531797
H 0.185789596 -3.399887888 1.846692450
H -2.771773765 -0.926521513 -2.374316607
H -3.671418043 -1.421807448 0.783731974
H 0.418762270 -4.057815200 -1.397346493
H 3.471823261 -0.747738549 -1.982780736
H 3.995376873 -1.206810605 1.257529475
H 2.447371737 3.541321964 0.720935392

