16

C 4.244703331 0.938229046 1.123541146
C 1.580231372 0.940131490 0.231411080
C -1.170831542 -2.282138261 -1.359173931
C -3.002542054 -0.010611360 -1.309321614
C -2.506665334 0.509797331 1.439591189
O -0.138853806 1.480492477 1.925504007
H 4.390030187 0.067987414 2.984427083
H 5.015603668 2.856780902 1.238735166
H 5.416790615 -0.123171404 -0.198585082
H 1.195095985 1.416399392 -1.720458858
H 0.245146611 -2.465017735 -2.840384618
H -2.241035830 -4.044014379 -1.273729416
H -4.969161645 -0.549793404 -1.611947005
H -2.578730115 1.535982736 -2.617995884
H -1.402228431 -1.938307865 1.233246267
H -3.892110426 1.297014716 2.736864929

