12

C -1.713896047 -2.077350852 0.528988936
C -1.036817041 0.654803311 0.861086949
O -0.854515370 1.473629483 3.259335747
C 2.084755045 0.768327399 -0.393112942
C 4.198764599 -0.069031714 -0.141305461
C -2.021562773 2.528620871 -0.993724520
N 0.246307205 2.617623948 -1.796439001
H -1.482317405 -2.653583698 -1.429500656
H -0.543220823 -3.251849502 1.747800096
H -3.701551389 -2.266503877 1.055934247
H -1.567544280 3.148301959 3.365310208
H 6.049391535 -0.822711184 0.099793923

