13

C -2.445974738 -1.691112318 -0.033182173
C -0.069876724 -0.614000156 1.082230164
C 2.247387294 -0.841754956 -0.142595729
O 2.084873738 2.287215615 -2.364925367
C 0.728775110 2.547757882 -0.307700741
H -4.097364900 -0.606419463 0.561964525
H -2.749874447 -3.650965915 0.544786348
H -2.368821435 -1.637409004 -2.094647062
H -0.049505571 -0.219116711 3.091008203
H 2.431063344 -1.829201655 -1.920167515
H 3.995899552 -0.428345354 0.834359475
H 1.643734125 3.369057460 1.378807108
H -1.223981507 3.284346197 -0.485811605

