14

C -2.723164453 -2.660021012 -0.303184863
C -1.055116733 1.473807496 -2.042530362
C -1.057421008 -0.797582514 -0.304009199
C 1.227715606 -0.512896501 1.379188398
C 2.721038435 1.542888721 0.011594717
O 0.863007137 3.095056412 -1.126896071
H -4.317073719 -2.672844750 -1.590371359
H -2.560465440 -4.240485103 0.988268805
H -2.839213687 2.506357686 -2.035269278
H -0.642195663 0.889423959 -3.992966602
H 2.272252669 -2.272608901 1.612647998
H 0.647068077 0.152386097 3.246253400
H 3.863638036 2.724574396 1.250774327
H 3.955650880 0.712020817 -1.437899014

