11

O 2.854810145 -1.760817758 0.978978647
C 0.459456105 -0.622868830 1.169132433
C 0.492897586 2.188299300 0.650411210
O -1.874583711 1.518919208 -1.688947656
C -1.381916728 -1.100802487 -1.012459303
H 3.864359439 -0.681127952 -0.080507152
H -0.304258189 -1.207108464 2.994333084
H -0.506582454 3.393216947 1.984998443
H -0.020681692 2.334949511 -1.928599000
H -3.181855162 -1.939390886 -0.477878156
H -0.553942146 -2.151839339 -2.583604380

