16

C 4.447381674 -0.078888658 0.131166552
C 2.082309021 0.730647129 -1.079336257
C 0.526206938 1.645887242 -2.620421310
C -0.839334633 0.002345471 0.257859989
C -2.221203079 -2.240561622 -0.882009675
C -2.571980486 2.094698387 1.204737481
H 4.508556776 -2.128860931 0.361042740
H 6.026941853 0.480570789 -1.065097624
H 4.688684355 0.799727787 1.982228445
H 0.198268931 -0.682779894 1.914945918
H -3.355212060 -1.650027235 -2.496139030
H -3.469091586 -3.091785467 0.529453053
H -0.896243754 -3.682575288 -1.524074910
H -3.811781192 2.757001397 -0.298051648
H -3.732947695 1.381685747 2.760151080
H -1.482087104 3.701509021 1.890913496

