16

C -2.378655740 -0.378602150 2.299950328
C -2.625212918 0.326614349 -0.474012476
N -2.680455433 2.748078621 -1.253041129
C -0.052628400 0.857422562 -2.029754982
C 2.345445825 0.804041956 -0.477187046
C 3.245376302 -1.801471889 0.221833192
O 2.287380210 -3.731890753 -0.482942226
H -1.274772148 1.007093955 3.348383157
H -4.279256388 -0.387192241 3.102514368
H -1.592611308 -2.268720582 2.545313956
H -3.733555394 -1.104844593 -1.510381028
H -0.209111386 2.709805204 -3.019263693
H -0.145137165 -0.515675759 -3.558263888
H 2.164858022 1.940999875 1.235376140
H 3.897300654 1.678943049 -1.536336927
H 4.950079361 -1.841362761 1.441755322

