14

C 2.609856852 -0.048693442 -2.538235854
C 1.536127885 -1.443601565 -0.311054929
H 1.303540318 -3.472514126 -0.577201028
C 1.997084300 -0.644130100 2.333733775
H 3.115149700 1.029793987 2.720106252
H 2.110807357 -2.110668689 3.767969442
N -0.430601687 -0.212369501 1.137781725
C -2.492997776 -1.790529770 1.996210415
H -1.889565668 -3.717711231 2.498001034
H -3.366883859 -0.934282202 3.656665593
H -3.918886107 -1.924459272 0.511872081
H 1.386633466 -0.245124917 -4.188845446
H 4.477019193 -0.776697506 -3.032551019
H 2.783105091 1.959493188 -2.108202729

