18

C 3.113270141 0.525837043 -2.412291958
C 1.840667606 -1.057401733 -0.429547409
C 2.379105154 -0.766645562 2.306126350
N 0.035468969 0.173249033 1.223233742
C -2.261971728 -1.110406964 1.811660178
C -4.515077862 1.237481238 -0.770051113
O -3.508360190 3.492781628 -0.266736146
H 1.875066631 0.795004077 -4.041960984
H 4.845643741 -0.378923026 -3.072256678
H 3.602144406 2.380403698 -1.655575036
H 1.324507831 -2.958708572 -1.022146681
H 3.699854925 0.665363706 2.942289403
H 2.270854518 -2.444408817 3.481149853
H -2.368856924 -3.069969372 1.158659665
H -2.677265292 -0.963201928 3.827481434
H -3.472639679 0.207740503 -2.253641739
H -4.504147421 -0.184363608 1.104379531
H -1.678268587 3.456168656 -0.465514699

