9

C 1.310550881 -2.051995886 0.206782034
C 1.931688892 0.374454088 -0.192787308
C 0.116898269 2.473298610 -0.182339995
C -1.833187182 0.587540778 0.389081400
C -1.394110659 -1.899065132 0.624710273
H 2.606411371 -3.631331887 0.198739303
H 0.426999189 3.841113502 1.317376591
H -0.113223678 3.376977831 -2.012372166
H -2.800670833 -3.323260892 1.033953331

