12

C 3.588204822 -0.290406553 0.052007890
C 0.788186928 -0.363175863 0.136401244
N -0.535040822 -2.250088752 0.922796220
N -2.993557427 -1.485229605 0.658890562
C -3.252155506 0.897927443 -0.303901541
O -5.138320234 2.104404984 -0.762324174
N -0.737299419 1.592045581 -0.626190722
H 4.262240084 -0.030887441 -1.880544097
H 4.320031348 -2.068171942 0.778960170
H 4.322246126 1.255540708 1.203860648
H -4.418311790 -2.636902745 1.137396353
H -0.206224149 3.274944167 -1.317352553

