12

C 3.739513776 -0.302142830 0.236954686
C 0.938399878 -0.059970062 0.263038633
N -0.548978441 -2.131690380 0.627319626
N -2.810148565 -1.334500079 0.377345294
C -2.969781800 1.397149263 -0.202598955
O -4.831166096 2.705607083 0.227901292
N -0.310596879 2.025631051 -0.231277930
H 4.421828362 -0.617275675 -1.684082292
H 4.313699386 -1.900244491 1.399912174
H 4.602832189 1.420743344 0.953582901
H -4.290462010 -2.540433077 0.466755436
H -2.438598192 0.941938787 -2.396667078

