12

C -3.321325472 0.415056063 0.439278195
C -0.939999758 -0.432185467 -0.942150984
C 0.042693883 -2.932957822 0.017200816
O 2.410827439 -2.446218929 0.605308058
C 2.928824311 0.109340007 0.112173047
O 5.272435665 0.722026728 0.671357161
N 1.138872910 1.386080948 -0.760343986
H -2.945271807 0.674033259 2.449374148
H -3.980314262 2.204643598 -0.335347094
H -4.799116605 -1.002513202 0.226346576
H -1.400464258 -0.749143939 -2.942466168
H 5.497185706 2.487352616 0.287101045

