12

C -3.541090340 0.505302637 0.410428445
C -0.884196901 -0.288726681 -0.136901398
C 0.018692150 -2.848560726 -0.186209606
O 2.612995309 -2.467774524 -0.219255360
C 3.058156524 0.017256469 0.024235152
O 5.460892193 0.642180016 0.147997284
N 1.125893118 1.464970758 0.070490035
H -3.695544422 0.993017933 2.405996146
H -4.065200382 2.158904288 -0.698335175
H -4.840461829 -1.040714998 0.012810812
H -0.899730733 -1.319530160 -2.225571369
H 5.556845664 2.452758780 0.307931855

