12

C 3.536604055 4.867781826 -2.022871711
C 2.167928865 3.281735086 -1.134285467
C 0.568553433 1.438449492 -0.090518410
N 0.616115685 -0.903425431 -0.998345694
C -0.692029537 -2.952804085 -0.331030998
C -2.454773417 -2.829242528 1.636902199
C -3.951052817 -2.641085427 3.341933918
H 4.744486267 6.275163048 -2.798841087
H -0.719571425 1.839620565 1.438176369
H 1.853696757 -1.168438771 -2.432529885
H -0.321607633 -4.665954994 -1.366110530
H -5.278761051 -2.498408799 4.845198918

