12

C 2.646574023 4.465289796 -0.042365562
C 1.405724065 2.805382128 -0.973352517
C -0.041665853 0.840108211 -2.051485075
N 0.746217641 -1.596394918 -2.126752299
C -1.165349674 -2.616159391 -0.685962287
C -1.565511747 -1.970045173 1.876792348
C -1.952051768 -1.554213566 4.080763599
H 3.744847225 5.939484610 0.773857701
H -1.786192055 1.287692640 -3.008818988
H 2.536308296 -2.217926501 -2.338232873
H -2.238598631 -4.193509139 -1.445937815
H -2.261783832 -1.180656928 6.031221761

