11

C 1.191563917 2.566644825 -0.054983660
C 1.186578725 -3.933338109 -0.294820784
O -0.370655399 -2.495012886 -1.487692466
C -1.903008008 -0.577102157 -0.219699956
O -1.200899069 1.781862183 -0.963690328
H 1.392878538 4.550822466 -0.549815098
H 1.301506444 2.356680039 2.002631497
H 2.720350216 1.490137621 -0.935373614
H 1.018089912 -3.449071336 1.775761693
H -3.839791488 -0.893028290 -0.835053099
H -1.659695281 -0.898665419 1.821074604

