10

C 2.872171247 1.138469926 -3.054616595
C 3.398787255 0.777869344 -0.680585393
C 3.913848362 0.400240762 1.693141355
C 3.700271515 -2.107564001 3.006434909
H 5.523322376 -2.680674925 3.787843143
H 3.062150933 -3.570993272 1.707101858
H 2.364924838 -1.997707891 4.576921663
H 4.542609546 2.008258648 2.806243956
H 0.982833934 1.657186027 -3.653022882
H 4.307317800 0.929558775 -4.501525332

