12

O -3.642248835 -0.194022546 2.807122944
C -2.716517530 -0.621893372 0.586413821
C -0.134052504 0.255063894 0.147024925
O 1.215448883 -0.705183089 -1.748733526
C 3.216240675 0.695487149 -2.690375305
O 3.745538109 2.759233258 -2.025765770
H -0.920094876 -0.852610337 3.991027271
H -3.238481523 0.954967126 -0.853522829
H -3.115998641 -2.415130742 -0.408736952
H 0.567439988 -1.030052747 3.597729911
H 0.467165866 2.075297362 0.879837303
H 4.183822894 -0.445464648 -4.118210885

