15

O 4.887543788 -1.374129091 2.671675633
C 2.789702957 -0.614478427 1.421743424
C -2.391031575 3.421384411 -1.708400686
C -2.075631995 1.318063582 -0.381500064
O -2.834461309 1.221579192 2.078480719
C -0.981277461 -1.089904985 -1.417361565
C 1.299737415 -2.050189422 -0.000184947
H 5.194962450 -3.132514205 2.336844736
H 2.438053668 1.383532387 1.718077992
H -3.224308955 5.083252726 -0.859320452
H -1.839026757 3.490194725 -3.672142205
H -2.129525283 -0.260525524 2.857069463
H -2.459568804 -2.539598819 -1.357966302
H -0.529157046 -0.809045479 -3.411661902
H 1.759158692 -4.039415901 -0.238307655

