11

N -5.046218138 -0.593440881 1.111810369
C -3.131159668 0.299112578 0.088294486
O -2.257846380 2.363923170 -1.106238625
C -0.550220595 0.206562977 -0.691446462
O 1.286565211 0.567996115 1.104038719
C 3.609661264 1.235488918 0.249318503
N 4.078058475 1.602041967 -2.040166806
H 5.917351778 2.059667230 -2.308527568
H 4.898505806 1.373829324 1.848657311
H 0.091795884 -0.677464737 -2.422202664
H -6.518674139 0.642022735 1.054648119

