11

O 3.786866816 1.345263033 0.013318053
C 1.413540086 0.408186342 -0.073245633
C 0.415881401 -1.944960589 -0.000057126
C -2.275418716 -1.694884439 -0.092035879
C -3.131947986 0.736354272 -0.404594445
N -0.549967183 2.122996487 -0.200705979
H 4.969914059 -0.025811108 0.092704899
H 1.479037917 -3.680156854 0.170475973
H -3.561010284 -3.277139367 0.043855819
H -1.986110132 2.251683284 1.444016436
H -0.345510249 3.852539505 -0.977924558

