12

O -3.230620640 3.166173628 -1.085980061
C -2.673436367 0.873406017 -0.345068601
C -0.196852374 0.163435439 -1.502059582
C 1.250885065 -1.802952603 0.036436868
C 2.127138049 -0.753836809 2.529863460
O 4.220633342 -0.988975752 3.367083981
H -4.865733174 3.604363870 -0.416016706
H -0.025641240 -3.375161200 0.465166214
H -0.776231178 -0.704387722 -3.300037896
H 0.968780362 1.806585167 -1.987271104
H 2.880254267 -2.542429723 -0.984092926
H 0.656836090 0.291232458 3.608376231

