13

C 3.779226540 0.068718209 0.345772052
C 1.210364972 0.612087318 -0.737083763
O 0.796614766 2.041040747 -2.440033269
N -0.767487246 -0.700275413 0.503391727
C -3.375722051 -0.697075067 -0.496604832
C -3.167962292 0.858047835 1.810096543
H 5.180863071 1.189941454 -0.649361807
H 3.805384923 0.534509280 2.355437090
H 4.235608646 -1.934618024 0.149010121
H -4.239945190 -2.557928482 -0.364978850
H -3.431228863 0.103379584 -2.390311684
H -0.251294646 -2.137756817 1.637338461
H -2.751886173 2.790981735 1.173848320

