14

C -3.329739232 -1.004979068 -0.172243169
N -2.720700382 1.687695618 -0.435006677
C -0.702254826 -0.156233032 -0.473803057
C 1.518101032 -0.242816106 1.434693869
C 3.164333961 -0.504046536 -0.901208745
C 1.222189839 -0.468341805 -2.510494656
O 1.832842704 1.886155827 2.984551597
H -3.901095488 -1.706329451 1.667577650
H -4.338974738 -1.816409759 -1.759689251
H -2.755585955 2.549735367 1.279666558
H 1.507153301 -1.879614087 2.689649858
H 5.184948111 -0.724310613 -1.130106206
H 2.099491885 3.328135459 1.912932642
H 1.058390967 -0.672738041 -4.539528594

