14

C -2.990297347 -1.521449438 -0.535084343
N -3.387244562 1.199651396 -0.046056481
C -0.871277297 0.190853835 -0.111878533
C 1.322552437 0.109101958 1.722255742
C 3.168788480 -0.910616727 -0.269074985
C 1.421346620 0.958920319 -1.633342333
O 2.169129672 2.730210656 0.637926262
H -3.448218201 -2.863808075 0.946157562
H -3.475426043 -2.130551253 -2.429306050
H -3.987506976 1.517665582 1.743329155
H 1.340883461 -0.009641420 3.774736816
H 3.056663584 -2.906029452 -0.777381870
H 4.070599273 1.915482506 0.481187256
H 1.542859241 1.850153332 -3.479183347

