13

C 0.933853915 -1.914707076 0.387204807
C 2.025002113 0.057299482 -1.341677297
C 0.884879678 2.299880257 -1.261197698
C -1.373753603 2.609426807 0.413815194
N -3.149290777 0.559772745 -0.093221437
C -1.355968200 -0.689287071 1.607270310
H 2.308099905 -2.464700960 1.832756173
H 0.424703248 -3.648051655 -0.624539782
H 3.695932968 -0.331854843 -2.461690400
H 1.562141874 3.946875426 -2.272697076
H -0.616844137 1.172849789 2.662687907
H -2.859646010 -0.144189165 -1.861231776
H -2.293640004 -1.677408780 3.149049989

