14

C -2.085534538 -0.520154977 1.806891208
C -0.122473226 0.216322279 -0.176123817
C -0.959171275 2.442563953 -1.608535104
N -1.599224707 4.167872925 -2.755257445
C 0.308099228 -1.925909561 -2.085188982
O -0.324844885 -4.061100735 -1.721913324
C 2.470090440 0.783406034 1.024526659
H -2.326451734 1.002236546 3.173066593
H -3.906218233 -0.919784885 0.933168322
H -1.459569430 -2.217167039 2.788827428
H 1.338702660 -1.360186409 -3.818616899
H 3.102106792 -0.863426638 2.090263407
H 2.317601221 2.389488651 2.304316824
H 3.882714387 1.232941832 -0.408164364

