14

C -3.154676705 -0.548276162 1.432752496
C -1.204942346 0.239701592 -0.347153706
C -1.395934811 2.507617964 -1.750767930
N -1.532204984 4.354200016 -2.895963088
C 0.974122920 -1.410853235 -0.606355326
O 1.026176163 -3.514351358 0.576846685
C 3.338643130 0.413762414 0.136511529
H -2.183450584 -1.038402068 3.204482516
H -4.687301454 0.786481015 1.708588128
H -3.836709515 -2.406007258 0.796934564
H 1.312125722 -1.489930847 -2.710577006
H 4.971912954 -0.779882148 -0.206391806
H 3.194519312 0.840628150 2.141729078
H 3.416636379 2.131328460 -0.991369033

