26

C     3.78338   0.21839   0.79038
C     2.76642   0.07951  -0.30116
O     2.94496  -0.49271  -1.37181
C     1.51141   0.67638   0.03729
N     0.66702   1.52812   0.20239
N    -0.24374   2.35395   0.24006
C    -0.68459   2.84381   1.53634
C    -1.56284   0.09159  -1.12902
C    -2.32829  -0.31769   0.16108
C    -2.97791  -1.68990  -0.15258
C    -1.95299  -2.54320  -0.23145
C    -0.69739  -1.67416   0.03290
O    -1.23489  -0.74575   0.99783
C    -0.57794  -0.76333  -1.21806
H     3.83163   1.32662   0.98201
H     4.67893  -0.18305   0.46859
H     3.35688  -0.22940   1.69242
H    -0.00545   3.56086   1.88099
H    -1.68032   3.32481   1.30949
H    -0.86416   2.03053   2.24387
H    -1.82702   0.93229  -1.75058
H    -2.94245   0.44001   0.68601
H    -4.00090  -1.81479  -0.42308
H    -1.90467  -3.55421  -0.57776
H     0.21114  -2.17943   0.44740
H     0.26965  -0.82244  -1.92023
26

C     3.77389   0.22309   0.78731
C     2.75829   0.07664  -0.30536
O     2.94463  -0.49791  -1.37316
C     1.49462   0.66219   0.02540
N     0.67446   1.52818   0.20899
N    -0.24799   2.34022   0.23746
C    -0.68995   2.84059   1.52946
C    -1.55410   0.10235  -1.11756
C    -2.32543  -0.31508   0.16438
C    -2.97353  -1.68512  -0.15864
C    -1.94827  -2.53826  -0.23718
C    -0.69382  -1.67193   0.03699
O    -1.23534  -0.74742   1.00321
C    -0.56196  -0.75214  -1.20480
H     3.82725   1.32811   0.98117
H     4.67681  -0.18018   0.46763
H     3.35496  -0.22864   1.69152
H    -0.00670   3.56040   1.87746
H    -1.68173   3.32381   1.30651
H    -0.86586   2.03126   2.24355
H    -1.82625   0.93186  -1.74998
H    -2.94231   0.43989   0.68733
H    -3.99943  -1.81320  -0.42586
H    -1.90320  -3.55256  -0.58019
H     0.21124  -2.17969   0.44941
H     0.26811  -0.82318  -1.92060
26

C     3.76440   0.22779   0.78424
C     2.75016   0.07377  -0.30957
O     2.94430  -0.50311  -1.37452
C     1.47782   0.64800   0.01350
N     0.68190   1.52823   0.21560
N    -0.25224   2.32649   0.23487
C    -0.69532   2.83738   1.52258
C    -1.54537   0.11311  -1.10610
C    -2.32257  -0.31248   0.16767
C    -2.96916  -1.68033  -0.16470
C    -1.94356  -2.53333  -0.24291
C    -0.69026  -1.66969   0.04108
O    -1.23579  -0.74908   1.00859
C    -0.54599  -0.74095  -1.19154
H     3.82288   1.32960   0.98032
H     4.67470  -0.17731   0.46668
H     3.35304  -0.22789   1.69062
H    -0.00794   3.55994   1.87392
H    -1.68313   3.32281   1.30354
H    -0.86756   2.03200   2.24323
H    -1.82549   0.93144  -1.74938
H    -2.94218   0.43977   0.68865
H    -3.99797  -1.81161  -0.42864
H    -1.90173  -3.55091  -0.58261
H     0.21134  -2.17996   0.45143
H     0.26657  -0.82392  -1.92097
26

C     3.75491   0.23249   0.78117
C     2.74203   0.07090  -0.31377
O     2.94398  -0.50831  -1.37587
C     1.46103   0.63381   0.00160
N     0.68934   1.52829   0.22220
N    -0.25648   2.31277   0.23227
C    -0.70068   2.83417   1.51570
C    -1.53664   0.12387  -1.09464
C    -2.31972  -0.30988   0.17097
C    -2.96478  -1.67555  -0.17075
C    -1.93884  -2.52840  -0.24864
C    -0.68669  -1.66746   0.04517
O    -1.23623  -0.75075   1.01397
C    -0.53001  -0.72976  -1.17828
H     3.81851   1.33109   0.97947
H     4.67258  -0.17445   0.46572
H     3.35112  -0.22713   1.68972
H    -0.00918   3.55947   1.87038
H    -1.68454   3.32181   1.30057
H    -0.86926   2.03273   2.24291
H    -1.82472   0.93101  -1.74878
H    -2.94204   0.43966   0.68997
H    -3.99651  -1.81002  -0.43142
H    -1.90026  -3.54925  -0.58504
H     0.21144  -2.18023   0.45345
H     0.26503  -0.82467  -1.92134
26

C     3.74542   0.23719   0.77809
C     2.73389   0.06802  -0.31798
O     2.94365  -0.51351  -1.37723
C     1.44423   0.61962  -0.01030
N     0.69678   1.52835   0.22880
N    -0.26073   2.29904   0.22967
C    -0.70604   2.83095   1.50882
C    -1.52791   0.13463  -1.08318
C    -2.31686  -0.30727   0.17427
C    -2.96040  -1.67076  -0.17681
C    -1.93413  -2.52346  -0.25438
C    -0.68312  -1.66523   0.04926
O    -1.23668  -0.75242   1.01935
C    -0.51403  -0.71857  -1.16502
H     3.81414   1.33259   0.97863
H     4.67047  -0.17158   0.46476
H     3.34920  -0.22637   1.68882
H    -0.01043   3.55901   1.86685
H    -1.68595   3.32081   1.29759
H    -0.87096   2.03346   2.24260
H    -1.82396   0.93059  -1.74818
H    -2.94191   0.43954   0.69130
H    -3.99504  -1.80843  -0.43420
H    -1.89879  -3.54760  -0.58746
H     0.21154  -2.18050   0.45546
H     0.26349  -0.82541  -1.92172
26

C     3.73592   0.24189   0.77502
C     2.72576   0.06515  -0.32218
O     2.94333  -0.51871  -1.37858
C     1.42744   0.60543  -0.02219
N     0.70422   1.52840   0.23541
N    -0.26497   2.28531   0.22707
C    -0.71141   2.82774   1.50194
C    -1.51918   0.14539  -1.07171
C    -2.31400  -0.30467   0.17756
C    -2.95603  -1.66597  -0.18287
C    -1.92941  -2.51853  -0.26011
C    -0.67955  -1.66299   0.05335
O    -1.23713  -0.75409   1.02473
C    -0.49805  -0.70738  -1.15176
H     3.80977   1.33408   0.97778
H     4.66835  -0.16871   0.46381
H     3.34728  -0.22561   1.68793
H    -0.01167   3.55855   1.86331
H    -1.68735   3.31981   1.29462
H    -0.87266   2.03419   2.24228
H    -1.82319   0.93017  -1.74758
H    -2.94178   0.43942   0.69262
H    -3.99358  -1.80684  -0.43697
H    -1.89733  -3.54594  -0.58989
H     0.21164  -2.18076   0.45748
H     0.26195  -0.82615  -1.92209
26

C     3.72643   0.24659   0.77195
C     2.71763   0.06228  -0.32639
O     2.94300  -0.52391  -1.37993
C     1.41064   0.59124  -0.03409
N     0.71166   1.52846   0.24201
N    -0.26922   2.27158   0.22447
C    -0.71677   2.82452   1.49506
C    -1.51044   0.15616  -1.06025
C    -2.31114  -0.30206   0.18086
C    -2.95165  -1.66119  -0.18893
C    -1.92470  -2.51360  -0.26584
C    -0.67599  -1.66076   0.05744
O    -1.23758  -0.75576   1.03011
C    -0.48207  -0.69619  -1.13850
H     3.80540   1.33557   0.97693
H     4.66624  -0.16585   0.46285
H     3.34537  -0.22486   1.68703
H    -0.01291   3.55809   1.85978
H    -1.68876   3.31882   1.29165
H    -0.87436   2.03492   2.24196
H    -1.82243   0.92974  -1.74698
H    -2.94164   0.43931   0.69394
H    -3.99212  -1.80525  -0.43975
H    -1.89586  -3.54429  -0.59231
H     0.21174  -2.18103   0.45950
H     0.26041  -0.82690  -1.92246
26

C     3.71694   0.25129   0.76887
C     2.70950   0.05941  -0.33059
O     2.94267  -0.52911  -1.38129
C     1.39385   0.57705  -0.04599
N     0.71910   1.52851   0.24861
N    -0.27346   2.25786   0.22187
C    -0.72213   2.82131   1.48818
C    -1.50171   0.16692  -1.04879
C    -2.30829  -0.29946   0.18416
C    -2.94727  -1.65640  -0.19499
C    -1.91998  -2.50866  -0.27157
C    -0.67242  -1.65852   0.06153
O    -1.23802  -0.75743   1.03549
C    -0.46609  -0.68500  -1.12524
H     3.80103   1.33706   0.97609
H     4.66412  -0.16298   0.46190
H     3.34345  -0.22410   1.68613
H    -0.01416   3.55763   1.85624
H    -1.69016   3.31782   1.28867
H    -0.87605   2.03565   2.24164
H    -1.82166   0.92932  -1.74638
H    -2.94151   0.43919   0.69526
H    -3.99065  -1.80365  -0.44253
H    -1.89439  -3.54264  -0.59473
H     0.21184  -2.18130   0.46151
H     0.25887  -0.82764  -1.92283
26

C     3.70745   0.25599   0.76580
C     2.70136   0.05653  -0.33480
O     2.94235  -0.53431  -1.38264
C     1.37706   0.56286  -0.05788
N     0.72654   1.52857   0.25521
N    -0.27771   2.24413   0.21927
C    -0.72750   2.81810   1.48130
C    -1.49298   0.17768  -1.03733
C    -2.30543  -0.29686   0.18746
C    -2.94289  -1.65162  -0.20104
C    -1.91526  -2.50373  -0.27730
C    -0.66885  -1.65629   0.06562
O    -1.23847  -0.75910   1.04087
C    -0.45011  -0.67381  -1.11199
H     3.79666   1.33855   0.97524
H     4.66201  -0.16011   0.46094
H     3.34153  -0.22334   1.68523
H    -0.01540   3.55716   1.85271
H    -1.69157   3.31682   1.28570
H    -0.87775   2.03638   2.24132
H    -1.82090   0.92890  -1.74578
H    -2.94137   0.43907   0.69658
H    -3.98919  -1.80206  -0.44531
H    -1.89292  -3.54098  -0.59716
H     0.21194  -2.18157   0.46353
H     0.25733  -0.82839  -1.92320
26

C     3.69796   0.26070   0.76273
C     2.69323   0.05366  -0.33900
O     2.94202  -0.53951  -1.38400
C     1.36026   0.54867  -0.06978
N     0.73398   1.52863   0.26182
N    -0.28195   2.23040   0.21667
C    -0.73286   2.81488   1.47442
C    -1.48425   0.18844  -1.02587
C    -2.30257  -0.29425   0.19075
C    -2.93852  -1.64683  -0.20710
C    -1.91055  -2.49880  -0.28303
C    -0.66528  -1.65406   0.06971
O    -1.23892  -0.76077   1.04625
C    -0.43413  -0.66262  -1.09873
H     3.79228   1.34004   0.97439
H     4.65989  -0.15725   0.45998
H     3.33961  -0.22258   1.68433
H    -0.01664   3.55670   1.84917
H    -1.69298   3.31582   1.28272
H    -0.87945   2.03711   2.24101
H    -1.82013   0.92847  -1.74518
H    -2.94124   0.43896   0.69790
H    -3.98773  -1.80047  -0.44809
H    -1.89145  -3.53933  -0.59958
H     0.21204  -2.18183   0.46554
H     0.25579  -0.82913  -1.92358
26

C     3.68846   0.26540   0.75966
C     2.68510   0.05079  -0.34321
O     2.94170  -0.54472  -1.38535
C     1.34347   0.53448  -0.08168
N     0.74142   1.52868   0.26842
N    -0.28620   2.21667   0.21407
C    -0.73823   2.81167   1.46754
C    -1.47552   0.19920  -1.01441
C    -2.29971  -0.29165   0.19405
C    -2.93414  -1.64205  -0.21316
C    -1.90583  -2.49386  -0.28876
C    -0.66171  -1.65182   0.07380
O    -1.23937  -0.76243   1.05163
C    -0.41815  -0.65143  -1.08547
H     3.78791   1.34153   0.97355
H     4.65777  -0.15438   0.45903
H     3.33769  -0.22183   1.68343
H    -0.01789   3.55624   1.84563
H    -1.69438   3.31482   1.27975
H    -0.88115   2.03784   2.24069
H    -1.81937   0.92805  -1.74458
H    -2.94111   0.43884   0.69923
H    -3.98626  -1.79888  -0.45086
H    -1.88998  -3.53767  -0.60201
H     0.21214  -2.18210   0.46756
H     0.25424  -0.82987  -1.92395
26

C     3.67897   0.27010   0.75658
C     2.67697   0.04792  -0.34741
O     2.94137  -0.54992  -1.38670
C     1.32667   0.52029  -0.09357
N     0.74886   1.52874   0.27502
N    -0.29045   2.20295   0.21147
C    -0.74359   2.80845   1.46066
C    -1.46679   0.20996  -1.00295
C    -2.29686  -0.28905   0.19735
C    -2.92976  -1.63726  -0.21922
C    -1.90112  -2.48893  -0.29449
C    -0.65815  -1.64959   0.07789
O    -1.23981  -0.76410   1.05701
C    -0.40217  -0.64024  -1.07221
H     3.78354   1.34302   0.97270
H     4.65566  -0.15152   0.45807
H     3.33577  -0.22107   1.68253
H    -0.01913   3.55578   1.84210
H    -1.69579   3.31382   1.27678
H    -0.88285   2.03857   2.24037
H    -1.81860   0.92763  -1.74398
H    -2.94097   0.43872   0.70055
H    -3.98480  -1.79729  -0.45364
H    -1.88851  -3.53602  -0.60443
H     0.21224  -2.18237   0.46958
H     0.25270  -0.83062  -1.92432
26

C     3.66948   0.27480   0.75351
C     2.66883   0.04504  -0.35162
O     2.94104  -0.55512  -1.38806
C     1.30988   0.50610  -0.10547
N     0.75630   1.52879   0.28162
N    -0.29469   2.18922   0.20888
C    -0.74895   2.80524   1.45378
C    -1.45805   0.22073  -0.99149
C    -2.29400  -0.28644   0.20064
C    -2.92539  -1.63248  -0.22528
C    -1.89640  -2.48399  -0.30022
C    -0.65458  -1.64735   0.08198
O    -1.24026  -0.76577   1.06239
C    -0.38619  -0.62905  -1.05895
H     3.77917   1.34451   0.97185
H     4.65354  -0.14865   0.45711
H     3.33385  -0.22031   1.68163
H    -0.02037   3.55531   1.83856
H    -1.69720   3.31282   1.27380
H    -0.88455   2.03931   2.24005
H    -1.81784   0.92720  -1.74338
H    -2.94084   0.43861   0.70187
H    -3.98334  -1.79570  -0.45642
H    -1.88705  -3.53437  -0.60686
H     0.21234  -2.18263   0.47159
H     0.25116  -0.83136  -1.92469
26

C     3.65999   0.27950   0.75044
C     2.66070   0.04217  -0.35582
O     2.94072  -0.56032  -1.38941
C     1.29308   0.49191  -0.11737
N     0.76374   1.52885   0.28823
N    -0.29894   2.17549   0.20628
C    -0.75432   2.80202   1.44690
C    -1.44932   0.23149  -0.98002
C    -2.29114  -0.28384   0.20394
C    -2.92101  -1.62769  -0.23133
C    -1.89169  -2.47906  -0.30595
C    -0.65101  -1.64512   0.08607
O    -1.24071  -0.76744   1.06777
C    -0.37021  -0.61786  -1.04569
H     3.77480   1.34600   0.97101
H     4.65143  -0.14578   0.45616
H     3.33193  -0.21955   1.68073
H    -0.02162   3.55485   1.83503
H    -1.69860   3.31182   1.27083
H    -0.88625   2.04004   2.23973
H    -1.81707   0.92678  -1.74278
H    -2.94070   0.43849   0.70319
H    -3.98187  -1.79411  -0.45920
H    -1.88558  -3.53271  -0.60928
H     0.21244  -2.18290   0.47361
H     0.24962  -0.83210  -1.92507
26

C     3.65050   0.28420   0.74737
C     2.65257   0.03930  -0.36003
O     2.94039  -0.56552  -1.39077
C     1.27629   0.47772  -0.12927
N     0.77118   1.52890   0.29483
N    -0.30318   2.16176   0.20368
C    -0.75968   2.79881   1.44002
C    -1.44059   0.24225  -0.96856
C    -2.28828  -0.28124   0.20724
C    -2.91663  -1.62291  -0.23739
C    -1.88697  -2.47413  -0.31169
C    -0.64744  -1.64288   0.09016
O    -1.24116  -0.76911   1.07315
C    -0.35423  -0.60666  -1.03243
H     3.77043   1.34749   0.97016
H     4.64931  -0.14292   0.45520
H     3.33001  -0.21880   1.67983
H    -0.02286   3.55439   1.83149
H    -1.70001   3.31082   1.26785
H    -0.88795   2.04077   2.23941
H    -1.81631   0.92636  -1.74218
H    -2.94057   0.43837   0.70451
H    -3.98041  -1.79252  -0.46198
H    -1.88411  -3.53106  -0.61170
H     0.21254  -2.18317   0.47563
H     0.24808  -0.83285  -1.92544
26

C     3.64100   0.28890   0.74429
C     2.64444   0.03643  -0.36423
O     2.94007  -0.57072  -1.39212
C     1.25949   0.46353  -0.14116
N     0.77862   1.52896   0.30143
N    -0.30743   2.14804   0.20108
C    -0.76505   2.79560   1.43314
C    -1.43186   0.25301  -0.95710
C    -2.28543  -0.27863   0.21054
C    -2.91226  -1.61812  -0.24345
C    -1.88226  -2.46919  -0.31742
C    -0.64388  -1.64065   0.09425
O    -1.24160  -0.77078   1.07853
C    -0.33825  -0.59547  -1.01917
H     3.76606   1.34898   0.96931
H     4.64720  -0.14005   0.45424
H     3.32809  -0.21804   1.67894
H    -0.02410   3.55393   1.82796
H    -1.70142   3.30982   1.26488
H    -0.88965   2.04150   2.23910
H    -1.81554   0.92593  -1.74158
H    -2.94043   0.43826   0.70583
H    -3.97895  -1.79093  -0.46475
H    -1.88264  -3.52941  -0.61413
H     0.21264  -2.18344   0.47764
H     0.24654  -0.83359  -1.92581
26

C     3.63151   0.29360   0.74122
C     2.63630   0.03355  -0.36844
O     2.93974  -0.57592  -1.39348
C     1.24270   0.44934  -0.15306
N     0.78606   1.52902   0.30803
N    -0.31167   2.13431   0.19848
C    -0.77041   2.79238   1.42626
C    -1.42313   0.26377  -0.94564
C    -2.28257  -0.27603   0.21383
C    -2.90788  -1.61334  -0.24951
C    -1.87754  -2.46426  -0.32315
C    -0.64031  -1.63842   0.09834
O    -1.24205  -0.77245   1.08391
C    -0.32227  -0.58428  -1.00591
H     3.76169   1.35047   0.96847
H     4.64508  -0.13718   0.45329
H     3.32617  -0.21728   1.67804
H    -0.02535   3.55347   1.82442
H    -1.70282   3.30882   1.26191
H    -0.89134   2.04223   2.23878
H    -1.81478   0.92551  -1.74098
H    -2.94030   0.43814   0.70716
H    -3.97748  -1.78933  -0.46753
H    -1.88117  -3.52775  -0.61655
H     0.21274  -2.18370   0.47966
H     0.24500  -0.83433  -1.92618
26

C     3.62202   0.29830   0.73815
C     2.62817   0.03068  -0.37264
O     2.93941  -0.58112  -1.39483
C     1.22591   0.43515  -0.16496
N     0.79350   1.52907   0.31464
N    -0.31592   2.12058   0.19588
C    -0.77577   2.78917   1.41938
C    -1.41439   0.27453  -0.93418
C    -2.27971  -0.27342   0.21713
C    -2.90350  -1.60855  -0.25557
C    -1.87283  -2.45933  -0.32888
C    -0.63674  -1.63618   0.10243
O    -1.24250  -0.77412   1.08929
C    -0.30629  -0.57309  -0.99265
H     3.75731   1.35196   0.96762
H     4.64297  -0.13432   0.45233
H     3.32425  -0.21652   1.67714
H    -0.02659   3.55300   1.82088
H    -1.70423   3.30782   1.25893
H    -0.89304   2.04296   2.23846
H    -1.81401   0.92509  -1.74038
H    -2.94017   0.43802   0.70848
H    -3.97602  -1.78774  -0.47031
H    -1.87970  -3.52610  -0.61898
H     0.21284  -2.18397   0.48167
H     0.24346  -0.83508  -1.92656
26

C     3.61253   0.30300   0.73507
C     2.62004   0.02781  -0.37685
O     2.93909  -0.58632  -1.39618
C     1.20911   0.42097  -0.17685
N     0.80094   1.52913   0.32124
N    -0.32017   2.10685   0.19328
C    -0.78114   2.78595   1.41250
C    -1.40566   0.28529  -0.92272
C    -2.27685  -0.27082   0.22043
C    -2.89913  -1.60377  -0.26163
C    -1.86811  -2.45439  -0.33461
C    -0.63317  -1.63395   0.10652
O    -1.24295  -0.77579   1.09467
C    -0.29031  -0.56190  -0.97939
H     3.75294   1.35345   0.96677
H     4.64085  -0.13145   0.45138
H     3.32233  -0.21577   1.67624
H    -0.02783   3.55254   1.81735
H    -1.70564   3.30682   1.25596
H    -0.89474   2.04369   2.23814
H    -1.81325   0.92466  -1.73978
H    -2.94003   0.43791   0.70980
H    -3.97456  -1.78615  -0.47309
H    -1.87824  -3.52444  -0.62140
H     0.21294  -2.18424   0.48369
H     0.24192  -0.83582  -1.92693
26

C     3.60304   0.30770   0.73200
C     2.61191   0.02494  -0.38105
O     2.93876  -0.59153  -1.39754
C     1.19232   0.40678  -0.18875
N     0.80838   1.52918   0.32784
N    -0.32441   2.09313   0.19068
C    -0.78650   2.78274   1.40562
C    -1.39693   0.29606  -0.91126
C    -2.27400  -0.26822   0.22372
C    -2.89475  -1.59898  -0.26768
C    -1.86340  -2.44946  -0.34034
C    -0.62960  -1.63171   0.11061
O    -1.24339  -0.77745   1.10005
C    -0.27433  -0.55071  -0.96613
H     3.74857   1.35494   0.96593
H     4.63874  -0.12858   0.45042
H     3.32041  -0.21501   1.67534
H    -0.02908   3.55208   1.81381
H    -1.70704   3.30582   1.25298
H    -0.89644   2.04442   2.23782
H    -1.81248   0.92424  -1.73918
H    -2.93990   0.43779   0.71112
H    -3.97309  -1.78456  -0.47587
H    -1.87677  -3.52279  -0.62382
H     0.21304  -2.18451   0.48571
H     0.24038  -0.83656  -1.92730
26

C     3.59354   0.31240   0.72893
C     2.60377   0.02206  -0.38526
O     2.93844  -0.59673  -1.39889
C     1.17552   0.39259  -0.20065
N     0.81582   1.52924   0.33444
N    -0.32866   2.07940   0.18808
C    -0.79186   2.77953   1.39874
C    -1.38820   0.30682  -0.89980
C    -2.27114  -0.26561   0.22702
C    -2.89037  -1.59420  -0.27374
C    -1.85868  -2.44453  -0.34607
C    -0.62604  -1.62948   0.11470
O    -1.24384  -0.77912   1.10543
C    -0.25835  -0.53952  -0.95287
H     3.74420   1.35643   0.96508
H     4.63662  -0.12572   0.44946
H     3.31849  -0.21425   1.67444
H    -0.03032   3.55162   1.81028
H    -1.70845   3.30482   1.25001
H    -0.89814   2.04515   2.23751
H    -1.81172   0.92381  -1.73858
H    -2.93976   0.43767   0.71244
H    -3.97163  -1.78297  -0.47865
H    -1.87530  -3.52114  -0.62625
H     0.21314  -2.18477   0.48772
H     0.23883  -0.83731  -1.92767
26

C     3.60304   0.30770   0.73200
C     2.61191   0.02494  -0.38105
O     2.93876  -0.59153  -1.39754
C     1.19232   0.40678  -0.18875
N     0.80838   1.52918   0.32784
N    -0.32441   2.09313   0.19068
C    -0.78650   2.78274   1.40562
C    -1.39693   0.29606  -0.91126
C    -2.27400  -0.26822   0.22372
C    -2.89475  -1.59898  -0.26768
C    -1.86340  -2.44946  -0.34034
C    -0.62960  -1.63171   0.11061
O    -1.24339  -0.77745   1.10005
C    -0.27433  -0.55071  -0.96613
H     3.74857   1.35494   0.96593
H     4.63874  -0.12858   0.45042
H     3.32041  -0.21501   1.67534
H    -0.02908   3.55208   1.81381
H    -1.70704   3.30582   1.25298
H    -0.89644   2.04442   2.23782
H    -1.81248   0.92424  -1.73918
H    -2.93990   0.43779   0.71112
H    -3.97309  -1.78456  -0.47587
H    -1.87677  -3.52279  -0.62382
H     0.21304  -2.18451   0.48571
H     0.24038  -0.83656  -1.92730
26

C     3.61253   0.30300   0.73507
C     2.62004   0.02781  -0.37685
O     2.93909  -0.58632  -1.39618
C     1.20911   0.42097  -0.17685
N     0.80094   1.52913   0.32124
N    -0.32017   2.10685   0.19328
C    -0.78114   2.78595   1.41250
C    -1.40566   0.28529  -0.92272
C    -2.27685  -0.27082   0.22043
C    -2.89913  -1.60377  -0.26163
C    -1.86811  -2.45439  -0.33461
C    -0.63317  -1.63395   0.10652
O    -1.24295  -0.77579   1.09467
C    -0.29031  -0.56190  -0.97939
H     3.75294   1.35345   0.96677
H     4.64085  -0.13145   0.45138
H     3.32233  -0.21577   1.67624
H    -0.02783   3.55254   1.81735
H    -1.70564   3.30682   1.25596
H    -0.89474   2.04369   2.23814
H    -1.81325   0.92466  -1.73978
H    -2.94003   0.43791   0.70980
H    -3.97456  -1.78615  -0.47309
H    -1.87824  -3.52444  -0.62140
H     0.21294  -2.18424   0.48369
H     0.24192  -0.83582  -1.92693
26

C     3.62202   0.29830   0.73815
C     2.62817   0.03068  -0.37264
O     2.93941  -0.58112  -1.39483
C     1.22591   0.43515  -0.16496
N     0.79350   1.52907   0.31464
N    -0.31592   2.12058   0.19588
C    -0.77577   2.78917   1.41938
C    -1.41439   0.27453  -0.93418
C    -2.27971  -0.27342   0.21713
C    -2.90350  -1.60855  -0.25557
C    -1.87283  -2.45933  -0.32888
C    -0.63674  -1.63618   0.10243
O    -1.24250  -0.77412   1.08929
C    -0.30629  -0.57309  -0.99265
H     3.75731   1.35196   0.96762
H     4.64297  -0.13432   0.45233
H     3.32425  -0.21652   1.67714
H    -0.02659   3.55300   1.82088
H    -1.70423   3.30782   1.25893
H    -0.89304   2.04296   2.23846
H    -1.81401   0.92509  -1.74038
H    -2.94017   0.43802   0.70848
H    -3.97602  -1.78774  -0.47031
H    -1.87970  -3.52610  -0.61898
H     0.21284  -2.18397   0.48167
H     0.24346  -0.83508  -1.92656
26

C     3.63151   0.29360   0.74122
C     2.63630   0.03355  -0.36844
O     2.93974  -0.57592  -1.39348
C     1.24270   0.44934  -0.15306
N     0.78606   1.52902   0.30803
N    -0.31167   2.13431   0.19848
C    -0.77041   2.79238   1.42626
C    -1.42313   0.26377  -0.94564
C    -2.28257  -0.27603   0.21383
C    -2.90788  -1.61334  -0.24951
C    -1.87754  -2.46426  -0.32315
C    -0.64031  -1.63842   0.09834
O    -1.24205  -0.77245   1.08391
C    -0.32227  -0.58428  -1.00591
H     3.76169   1.35047   0.96847
H     4.64508  -0.13718   0.45329
H     3.32617  -0.21728   1.67804
H    -0.02535   3.55347   1.82442
H    -1.70282   3.30882   1.26191
H    -0.89134   2.04223   2.23878
H    -1.81478   0.92551  -1.74098
H    -2.94030   0.43814   0.70716
H    -3.97748  -1.78933  -0.46753
H    -1.88117  -3.52775  -0.61655
H     0.21274  -2.18370   0.47966
H     0.24500  -0.83433  -1.92618
26

C     3.64100   0.28890   0.74429
C     2.64444   0.03643  -0.36423
O     2.94007  -0.57072  -1.39212
C     1.25949   0.46353  -0.14116
N     0.77862   1.52896   0.30143
N    -0.30743   2.14804   0.20108
C    -0.76505   2.79560   1.43314
C    -1.43186   0.25301  -0.95710
C    -2.28543  -0.27863   0.21054
C    -2.91226  -1.61812  -0.24345
C    -1.88226  -2.46919  -0.31742
C    -0.64388  -1.64065   0.09425
O    -1.24160  -0.77078   1.07853
C    -0.33825  -0.59547  -1.01917
H     3.76606   1.34898   0.96931
H     4.64720  -0.14005   0.45424
H     3.32809  -0.21804   1.67894
H    -0.02410   3.55393   1.82796
H    -1.70142   3.30982   1.26488
H    -0.88965   2.04150   2.23910
H    -1.81554   0.92593  -1.74158
H    -2.94043   0.43826   0.70583
H    -3.97895  -1.79093  -0.46475
H    -1.88264  -3.52941  -0.61413
H     0.21264  -2.18344   0.47764
H     0.24654  -0.83359  -1.92581
26

C     3.65050   0.28420   0.74737
C     2.65257   0.03930  -0.36003
O     2.94039  -0.56552  -1.39077
C     1.27629   0.47772  -0.12927
N     0.77118   1.52890   0.29483
N    -0.30318   2.16176   0.20368
C    -0.75968   2.79881   1.44002
C    -1.44059   0.24225  -0.96856
C    -2.28828  -0.28124   0.20724
C    -2.91663  -1.62291  -0.23739
C    -1.88697  -2.47413  -0.31169
C    -0.64744  -1.64288   0.09016
O    -1.24116  -0.76911   1.07315
C    -0.35423  -0.60666  -1.03243
H     3.77043   1.34749   0.97016
H     4.64931  -0.14292   0.45520
H     3.33001  -0.21880   1.67983
H    -0.02286   3.55439   1.83149
H    -1.70001   3.31082   1.26785
H    -0.88795   2.04077   2.23941
H    -1.81631   0.92636  -1.74218
H    -2.94057   0.43837   0.70451
H    -3.98041  -1.79252  -0.46198
H    -1.88411  -3.53106  -0.61170
H     0.21254  -2.18317   0.47563
H     0.24808  -0.83285  -1.92544
26

C     3.65999   0.27950   0.75044
C     2.66070   0.04217  -0.35582
O     2.94072  -0.56032  -1.38941
C     1.29308   0.49191  -0.11737
N     0.76374   1.52885   0.28823
N    -0.29894   2.17549   0.20628
C    -0.75432   2.80202   1.44690
C    -1.44932   0.23149  -0.98002
C    -2.29114  -0.28384   0.20394
C    -2.92101  -1.62769  -0.23133
C    -1.89169  -2.47906  -0.30595
C    -0.65101  -1.64512   0.08607
O    -1.24071  -0.76744   1.06777
C    -0.37021  -0.61786  -1.04569
H     3.77480   1.34600   0.97101
H     4.65143  -0.14578   0.45616
H     3.33193  -0.21955   1.68073
H    -0.02162   3.55485   1.83503
H    -1.69860   3.31182   1.27083
H    -0.88625   2.04004   2.23973
H    -1.81707   0.92678  -1.74278
H    -2.94070   0.43849   0.70319
H    -3.98187  -1.79411  -0.45920
H    -1.88558  -3.53271  -0.60928
H     0.21244  -2.18290   0.47361
H     0.24962  -0.83210  -1.92507
26

C     3.66948   0.27480   0.75351
C     2.66883   0.04504  -0.35162
O     2.94104  -0.55512  -1.38806
C     1.30988   0.50610  -0.10547
N     0.75630   1.52879   0.28162
N    -0.29469   2.18922   0.20888
C    -0.74895   2.80524   1.45378
C    -1.45805   0.22073  -0.99149
C    -2.29400  -0.28644   0.20064
C    -2.92539  -1.63248  -0.22528
C    -1.89640  -2.48399  -0.30022
C    -0.65458  -1.64735   0.08198
O    -1.24026  -0.76577   1.06239
C    -0.38619  -0.62905  -1.05895
H     3.77917   1.34451   0.97185
H     4.65354  -0.14865   0.45711
H     3.33385  -0.22031   1.68163
H    -0.02037   3.55531   1.83856
H    -1.69720   3.31282   1.27380
H    -0.88455   2.03931   2.24005
H    -1.81784   0.92720  -1.74338
H    -2.94084   0.43861   0.70187
H    -3.98334  -1.79570  -0.45642
H    -1.88705  -3.53437  -0.60686
H     0.21234  -2.18263   0.47159
H     0.25116  -0.83136  -1.92469
26

C     3.67897   0.27010   0.75658
C     2.67697   0.04792  -0.34741
O     2.94137  -0.54992  -1.38670
C     1.32667   0.52029  -0.09357
N     0.74886   1.52874   0.27502
N    -0.29045   2.20295   0.21147
C    -0.74359   2.80845   1.46066
C    -1.46679   0.20996  -1.00295
C    -2.29686  -0.28905   0.19735
C    -2.92976  -1.63726  -0.21922
C    -1.90112  -2.48893  -0.29449
C    -0.65815  -1.64959   0.07789
O    -1.23981  -0.76410   1.05701
C    -0.40217  -0.64024  -1.07221
H     3.78354   1.34302   0.97270
H     4.65566  -0.15152   0.45807
H     3.33577  -0.22107   1.68253
H    -0.01913   3.55578   1.84210
H    -1.69579   3.31382   1.27678
H    -0.88285   2.03857   2.24037
H    -1.81860   0.92763  -1.74398
H    -2.94097   0.43872   0.70055
H    -3.98480  -1.79729  -0.45364
H    -1.88851  -3.53602  -0.60443
H     0.21224  -2.18237   0.46958
H     0.25270  -0.83062  -1.92432
26

C     3.68846   0.26540   0.75966
C     2.68510   0.05079  -0.34321
O     2.94170  -0.54472  -1.38535
C     1.34347   0.53448  -0.08168
N     0.74142   1.52868   0.26842
N    -0.28620   2.21667   0.21407
C    -0.73823   2.81167   1.46754
C    -1.47552   0.19920  -1.01441
C    -2.29971  -0.29165   0.19405
C    -2.93414  -1.64205  -0.21316
C    -1.90583  -2.49386  -0.28876
C    -0.66171  -1.65182   0.07380
O    -1.23937  -0.76243   1.05163
C    -0.41815  -0.65143  -1.08547
H     3.78791   1.34153   0.97355
H     4.65777  -0.15438   0.45903
H     3.33769  -0.22183   1.68343
H    -0.01789   3.55624   1.84563
H    -1.69438   3.31482   1.27975
H    -0.88115   2.03784   2.24069
H    -1.81937   0.92805  -1.74458
H    -2.94111   0.43884   0.69923
H    -3.98626  -1.79888  -0.45086
H    -1.88998  -3.53767  -0.60201
H     0.21214  -2.18210   0.46756
H     0.25424  -0.82987  -1.92395
26

C     3.69796   0.26070   0.76273
C     2.69323   0.05366  -0.33900
O     2.94202  -0.53951  -1.38400
C     1.36026   0.54867  -0.06978
N     0.73398   1.52863   0.26182
N    -0.28195   2.23040   0.21667
C    -0.73286   2.81488   1.47442
C    -1.48425   0.18844  -1.02587
C    -2.30257  -0.29425   0.19075
C    -2.93852  -1.64683  -0.20710
C    -1.91055  -2.49880  -0.28303
C    -0.66528  -1.65406   0.06971
O    -1.23892  -0.76077   1.04625
C    -0.43413  -0.66262  -1.09873
H     3.79228   1.34004   0.97439
H     4.65989  -0.15725   0.45998
H     3.33961  -0.22258   1.68433
H    -0.01664   3.55670   1.84917
H    -1.69298   3.31582   1.28272
H    -0.87945   2.03711   2.24101
H    -1.82013   0.92847  -1.74518
H    -2.94124   0.43896   0.69790
H    -3.98773  -1.80047  -0.44809
H    -1.89145  -3.53933  -0.59958
H     0.21204  -2.18183   0.46554
H     0.25579  -0.82913  -1.92358
26

C     3.70745   0.25599   0.76580
C     2.70136   0.05653  -0.33480
O     2.94235  -0.53431  -1.38264
C     1.37706   0.56286  -0.05788
N     0.72654   1.52857   0.25521
N    -0.27771   2.24413   0.21927
C    -0.72750   2.81810   1.48130
C    -1.49298   0.17768  -1.03733
C    -2.30543  -0.29686   0.18746
C    -2.94289  -1.65162  -0.20104
C    -1.91526  -2.50373  -0.27730
C    -0.66885  -1.65629   0.06562
O    -1.23847  -0.75910   1.04087
C    -0.45011  -0.67381  -1.11199
H     3.79666   1.33855   0.97524
H     4.66201  -0.16011   0.46094
H     3.34153  -0.22334   1.68523
H    -0.01540   3.55716   1.85271
H    -1.69157   3.31682   1.28570
H    -0.87775   2.03638   2.24132
H    -1.82090   0.92890  -1.74578
H    -2.94137   0.43907   0.69658
H    -3.98919  -1.80206  -0.44531
H    -1.89292  -3.54098  -0.59716
H     0.21194  -2.18157   0.46353
H     0.25733  -0.82839  -1.92320
26

C     3.71694   0.25129   0.76887
C     2.70950   0.05941  -0.33059
O     2.94267  -0.52911  -1.38129
C     1.39385   0.57705  -0.04599
N     0.71910   1.52851   0.24861
N    -0.27346   2.25786   0.22187
C    -0.72213   2.82131   1.48818
C    -1.50171   0.16692  -1.04879
C    -2.30829  -0.29946   0.18416
C    -2.94727  -1.65640  -0.19499
C    -1.91998  -2.50866  -0.27157
C    -0.67242  -1.65852   0.06153
O    -1.23802  -0.75743   1.03549
C    -0.46609  -0.68500  -1.12524
H     3.80103   1.33706   0.97609
H     4.66412  -0.16298   0.46190
H     3.34345  -0.22410   1.68613
H    -0.01416   3.55763   1.85624
H    -1.69016   3.31782   1.28867
H    -0.87605   2.03565   2.24164
H    -1.82166   0.92932  -1.74638
H    -2.94151   0.43919   0.69526
H    -3.99065  -1.80365  -0.44253
H    -1.89439  -3.54264  -0.59473
H     0.21184  -2.18130   0.46151
H     0.25887  -0.82764  -1.92283
26

C     3.72643   0.24659   0.77195
C     2.71763   0.06228  -0.32639
O     2.94300  -0.52391  -1.37993
C     1.41064   0.59124  -0.03409
N     0.71166   1.52846   0.24201
N    -0.26922   2.27158   0.22447
C    -0.71677   2.82452   1.49506
C    -1.51044   0.15616  -1.06025
C    -2.31114  -0.30206   0.18086
C    -2.95165  -1.66119  -0.18893
C    -1.92470  -2.51360  -0.26584
C    -0.67599  -1.66076   0.05744
O    -1.23758  -0.75576   1.03011
C    -0.48207  -0.69619  -1.13850
H     3.80540   1.33557   0.97693
H     4.66624  -0.16585   0.46285
H     3.34537  -0.22486   1.68703
H    -0.01291   3.55809   1.85978
H    -1.68876   3.31882   1.29165
H    -0.87436   2.03492   2.24196
H    -1.82243   0.92974  -1.74698
H    -2.94164   0.43931   0.69394
H    -3.99212  -1.80525  -0.43975
H    -1.89586  -3.54429  -0.59231
H     0.21174  -2.18103   0.45950
H     0.26041  -0.82690  -1.92246
26

C     3.73592   0.24189   0.77502
C     2.72576   0.06515  -0.32218
O     2.94333  -0.51871  -1.37858
C     1.42744   0.60543  -0.02219
N     0.70422   1.52840   0.23541
N    -0.26497   2.28531   0.22707
C    -0.71141   2.82774   1.50194
C    -1.51918   0.14539  -1.07171
C    -2.31400  -0.30467   0.17756
C    -2.95603  -1.66597  -0.18287
C    -1.92941  -2.51853  -0.26011
C    -0.67955  -1.66299   0.05335
O    -1.23713  -0.75409   1.02473
C    -0.49805  -0.70738  -1.15176
H     3.80977   1.33408   0.97778
H     4.66835  -0.16871   0.46381
H     3.34728  -0.22561   1.68793
H    -0.01167   3.55855   1.86331
H    -1.68735   3.31981   1.29462
H    -0.87266   2.03419   2.24228
H    -1.82319   0.93017  -1.74758
H    -2.94178   0.43942   0.69262
H    -3.99358  -1.80684  -0.43697
H    -1.89733  -3.54594  -0.58989
H     0.21164  -2.18076   0.45748
H     0.26195  -0.82615  -1.92209
26

C     3.74542   0.23719   0.77809
C     2.73389   0.06802  -0.31798
O     2.94365  -0.51351  -1.37723
C     1.44423   0.61962  -0.01030
N     0.69678   1.52835   0.22880
N    -0.26073   2.29904   0.22967
C    -0.70604   2.83095   1.50882
C    -1.52791   0.13463  -1.08318
C    -2.31686  -0.30727   0.17427
C    -2.96040  -1.67076  -0.17681
C    -1.93413  -2.52346  -0.25438
C    -0.68312  -1.66523   0.04926
O    -1.23668  -0.75242   1.01935
C    -0.51403  -0.71857  -1.16502
H     3.81414   1.33259   0.97863
H     4.67047  -0.17158   0.46476
H     3.34920  -0.22637   1.68882
H    -0.01043   3.55901   1.86685
H    -1.68595   3.32081   1.29759
H    -0.87096   2.03346   2.24260
H    -1.82396   0.93059  -1.74818
H    -2.94191   0.43954   0.69130
H    -3.99504  -1.80843  -0.43420
H    -1.89879  -3.54760  -0.58746
H     0.21154  -2.18050   0.45546
H     0.26349  -0.82541  -1.92172
26

C     3.75491   0.23249   0.78117
C     2.74203   0.07090  -0.31377
O     2.94398  -0.50831  -1.37587
C     1.46103   0.63381   0.00160
N     0.68934   1.52829   0.22220
N    -0.25648   2.31277   0.23227
C    -0.70068   2.83417   1.51570
C    -1.53664   0.12387  -1.09464
C    -2.31972  -0.30988   0.17097
C    -2.96478  -1.67555  -0.17075
C    -1.93884  -2.52840  -0.24864
C    -0.68669  -1.66746   0.04517
O    -1.23623  -0.75075   1.01397
C    -0.53001  -0.72976  -1.17828
H     3.81851   1.33109   0.97947
H     4.67258  -0.17445   0.46572
H     3.35112  -0.22713   1.68972
H    -0.00918   3.55947   1.87038
H    -1.68454   3.32181   1.30057
H    -0.86926   2.03273   2.24291
H    -1.82472   0.93101  -1.74878
H    -2.94204   0.43966   0.68997
H    -3.99651  -1.81002  -0.43142
H    -1.90026  -3.54925  -0.58504
H     0.21144  -2.18023   0.45345
H     0.26503  -0.82467  -1.92134
26

C     3.76440   0.22779   0.78424
C     2.75016   0.07377  -0.30957
O     2.94430  -0.50311  -1.37452
C     1.47782   0.64800   0.01350
N     0.68190   1.52823   0.21560
N    -0.25224   2.32649   0.23487
C    -0.69532   2.83738   1.52258
C    -1.54537   0.11311  -1.10610
C    -2.32257  -0.31248   0.16767
C    -2.96916  -1.68033  -0.16470
C    -1.94356  -2.53333  -0.24291
C    -0.69026  -1.66969   0.04108
O    -1.23579  -0.74908   1.00859
C    -0.54599  -0.74095  -1.19154
H     3.82288   1.32960   0.98032
H     4.67470  -0.17731   0.46668
H     3.35304  -0.22789   1.69062
H    -0.00794   3.55994   1.87392
H    -1.68313   3.32281   1.30354
H    -0.86756   2.03200   2.24323
H    -1.82549   0.93144  -1.74938
H    -2.94218   0.43977   0.68865
H    -3.99797  -1.81161  -0.42864
H    -1.90173  -3.55091  -0.58261
H     0.21134  -2.17996   0.45143
H     0.26657  -0.82392  -1.92097
26

C     3.77389   0.22309   0.78731
C     2.75829   0.07664  -0.30536
O     2.94463  -0.49791  -1.37316
C     1.49462   0.66219   0.02540
N     0.67446   1.52818   0.20899
N    -0.24799   2.34022   0.23746
C    -0.68995   2.84059   1.52946
C    -1.55410   0.10235  -1.11756
C    -2.32543  -0.31508   0.16438
C    -2.97353  -1.68512  -0.15864
C    -1.94827  -2.53826  -0.23718
C    -0.69382  -1.67193   0.03699
O    -1.23534  -0.74742   1.00321
C    -0.56196  -0.75214  -1.20480
H     3.82725   1.32811   0.98117
H     4.67681  -0.18018   0.46763
H     3.35496  -0.22864   1.69152
H    -0.00670   3.56040   1.87746
H    -1.68173   3.32381   1.30651
H    -0.86586   2.03126   2.24355
H    -1.82625   0.93186  -1.74998
H    -2.94231   0.43989   0.68733
H    -3.99943  -1.81320  -0.42586
H    -1.90320  -3.55256  -0.58019
H     0.21124  -2.17969   0.44941
H     0.26811  -0.82318  -1.92060
