12

N 2.178475880 2.855086914 -0.031822988
C 2.171695221 -1.913495289 0.023153208
C 0.087261260 -3.429039030 0.039007916
N -2.171381470 -1.982607789 0.021396084
C -1.494619201 0.411816090 -0.005283466
O -3.028846796 2.386277232 -0.028545145
N 1.012481696 0.487031272 -0.004820786
H 3.320412187 2.903531819 -1.569424387
H 3.321146723 2.938140283 1.503750943
H -0.058684632 -5.459290008 0.061592505
H -3.970315665 -2.587912408 0.027250191
H -1.932116650 3.857695717 -0.044153130

