12

N 3.923141638 2.630889183 -0.939264938
C 1.655845872 -1.350314215 -0.027128644
C 0.029528558 -3.327090498 0.076619040
N -2.378929996 -2.208776447 0.194928500
C -1.993588931 0.300339219 0.153296624
O -3.915234986 1.930157004 0.258947546
N 0.423785804 0.774045464 0.047082999
H 4.967851819 4.288667791 -0.937904146
H 4.018130762 2.051665619 0.890286109
H 0.274369808 -5.343857524 0.065992014
H -4.079448577 -3.060132460 0.189967478
H -3.244668108 3.603294984 0.027052696

