10

O -4.470706355 -1.050806230 1.089296606
C -2.265426506 0.207387616 0.918727337
C 2.498632184 1.965342306 0.232179859
C 3.557790228 -0.184663564 0.392205079
N 1.554526297 0.067674910 -1.558758471
N -0.827366260 -0.948873741 -0.720464057
H -5.486749070 -0.173648256 2.302626766
H 2.138270709 3.909521418 0.679308864
H 4.839565437 -1.609983163 1.050512548
H -1.395431502 -2.438062096 -1.782759784

