15

C -2.632858259 -2.136585602 -0.574075440
C -0.954641828 -1.011277978 1.476510125
C 1.067993780 0.730649340 0.460959722
C 0.575165982 3.441705864 0.178242559
O 2.060067606 2.495933163 2.200841676
C 5.422802892 -0.594899503 -1.278134708
C 2.988652152 -0.466968446 -1.214893398
H -4.131567034 -3.276547845 0.262222857
H -1.570543578 -3.365435176 -1.846996507
H -3.521953349 -0.658637925 -1.708085952
H -2.087494826 0.087664395 2.806391884
H -0.039038038 -2.511701454 2.561829425
H 1.604372944 4.511500724 -1.236936638
H -1.265804340 4.177779966 0.714416045
H 2.391038000 -1.591123300 -2.860820248

