15

C -2.455904285 -2.288661312 -0.331540241
C -0.880455470 -0.983558776 1.687688135
C 1.266291605 0.571637485 0.613270835
C 0.755137375 3.266679468 -0.036413775
O 2.143688724 2.582300885 2.107091078
C 3.747274862 -1.387919065 -0.097400226
C 2.936170394 -0.415518196 -2.097972488
H -4.032023972 -3.299439080 0.529123353
H -1.329683659 -3.650422165 -1.392064255
H -3.240906646 -0.925205394 -1.670657772
H -2.058887774 0.295900290 2.802946422
H -0.078817264 -2.367201278 2.988208387
H 1.812810322 4.219305525 -1.512957405
H -1.143417096 3.976774749 0.304778147
H 2.464918770 0.237383125 -3.952626940

