10

O -1.301941232 4.309778186 -1.053360913
C -0.276419519 2.330796989 -0.726144214
C -1.383851600 0.031149452 0.650373151
C 0.655395287 -1.925508996 0.412633964
O 2.772117714 -0.624981487 -0.963493475
C 2.438861223 1.662866015 -1.647503241
H -3.153399250 -0.502966501 -0.254546544
H -1.790202791 0.560617434 2.598474711
H 0.174928300 -3.549344570 -0.751334925
H 1.477006500 -2.562104456 2.184743232

