14

C -4.266431894 -0.378757429 -0.335167589
C -1.588113231 0.341472868 0.226774807
N -0.629343050 2.514479975 0.448327035
O -0.140227902 -1.736119566 0.496507530
C 2.439328080 -1.274595157 0.995774457
C 3.803195581 -0.030346394 -1.149533119
O 6.002138460 0.900780401 -0.606981562
H -4.989616003 -1.603153410 1.156351251
H -5.459618405 1.287896145 -0.490892814
H -4.337561298 -1.438282988 -2.101691129
H -1.936713125 3.885853562 0.185791032
H 2.703172549 -0.142572145 2.708041938
H 3.307918867 -3.131780424 1.255015005
H 5.276979512 0.961261274 -2.695769377

