14

O 2.824588907 -1.799977097 0.825383956
C 0.270091355 -1.985123487 0.069359808
C -0.899381191 0.559074189 -0.521108212
H 0.212876344 1.522084216 -1.962122893
C -3.762659292 0.514809263 -0.983866632
H -4.649025221 -1.354733264 -0.994717420
H -4.409755790 1.579717140 -2.632648045
O -4.246593379 1.846415926 1.327723049
C -1.598749800 2.195228321 1.773169575
H -1.055523194 4.185411795 1.641461749
H -1.030304157 1.464455581 3.627167687
H -0.865806804 -2.959038272 1.509947733
H 0.264718788 -3.166908316 -1.623052528
H 2.898867371 -0.962104375 2.430521843

