9

C -3.567448543 0.492017938 -0.246346172
C -0.870646733 0.040318441 -0.027820038
C 1.374607362 -0.307645164 0.136526665
C 3.939091474 -1.029962192 0.344874753
O 5.734427310 0.646539577 0.295717837
H -4.040232583 2.432533249 0.261169013
H -4.626980035 -0.796424395 0.964521656
H -4.162182487 0.169504503 -2.195265510
H 6.230205576 -1.520147473 0.512893629

