11

N 3.937202183 -0.327786073 -0.076379631
C 1.486964128 0.292836892 -0.157231355
C -0.396751118 2.003732432 -0.716021140
N -2.663462090 0.709947561 -0.233943786
C -2.162431141 -1.620072392 0.580814978
N 0.305721650 -1.897033563 0.667320026
H 2.539792705 -2.540588771 0.873985482
H 5.284463507 1.008427213 -0.146315390
H -0.384221667 3.903619577 -1.427379703
H -4.406027493 1.430278051 -0.434383029
H -3.576195480 -2.993456686 1.089989833

