16

C -2.469897386 2.209381273 -1.704882280
C -1.542085058 0.400573391 0.277635028
C -2.999144969 -1.426563341 1.189077207
H -4.917824797 -1.700373148 0.525144289
H -2.326054911 -2.708462497 2.638814033
C 1.132322477 0.759380679 1.187170965
C 3.084311978 -0.164453964 -0.707866197
O 5.508462477 0.309313547 0.320444903
H 6.763551956 -0.279673438 -0.842893535
H 2.857074566 0.820416396 -2.518930658
H 2.800361107 -2.190458482 -1.048089409
H 1.495942557 2.761296556 1.559638195
H 1.423362920 -0.255497907 2.959230779
H -1.305459581 2.130344914 -3.409112964
H -2.377299332 4.152868330 -1.007995033
H -4.416686531 1.805380448 -2.241835203

