17

C 2.420184796 -0.390063736 1.991137200
C 2.747131320 1.538180770 -0.001724148
C 2.171425784 -1.144558019 -0.735759008
C -0.417719330 -0.927067417 -1.919262393
C -2.723075314 -1.534406685 -0.230675089
C -2.806184713 1.291235915 0.537290428
C -0.917120447 1.932340072 -1.563455366
H 4.158313009 -0.984614925 2.895851821
H 0.806951114 -0.374795845 3.250299039
H 4.478077232 2.583681727 -0.320235351
H 3.582349997 -2.406772786 -1.515617951
H -0.453733844 -1.646442216 -3.852120874
H -2.417320368 -2.913946572 1.272536678
H -4.375217795 -2.114274343 -1.315441832
H -4.605619875 2.268414201 0.275163664
H -2.195901460 1.685046770 2.468003880
H 1.119051024 3.056890672 -0.951227887

