28

C    -4.36558   0.47551  -0.07947
N    -3.14944  -0.31154  -0.14239
C    -2.18122  -0.20523   0.82114
O    -2.39288   0.45180   1.86528
C    -0.92339  -0.81933   0.53557
C     0.29842  -1.23459   0.22440
F     0.71875  -2.57011   0.42399
C     1.32504  -0.33739  -0.29211
C     2.69489  -0.96862  -0.70930
C     3.72576  -1.10057   0.35870
O     2.78889  -1.41301  -1.82864
N     0.73611   0.42251  -1.40300
C    -0.09262   1.27903  -0.85641
C    -1.16410   2.03340  -1.52553
C     0.42822   1.55787   0.51887
O     0.08525   2.39116   1.31096
O     1.50875   0.72914   0.67979
H    -4.17713   1.56282  -0.12762
H    -4.92134   0.27184   0.84812
H    -5.00817   0.20063  -0.93272
H    -2.88350  -0.72599  -1.02382
H     3.24188  -1.47105   1.28042
H     4.17657  -0.12906   0.59748
H     4.50807  -1.80964   0.03678
H     0.63337  -0.01369  -2.30414
H    -0.78245   2.97446  -1.98089
H    -1.61466   1.42819  -2.32973
H    -1.93509   2.31945  -0.79820
28

C    -4.36645   0.47578  -0.07992
N    -3.14935  -0.30964  -0.14250
C    -2.18385  -0.20334   0.82167
O    -2.39311   0.45337   1.86523
C    -0.92837  -0.82615   0.53922
C     0.27733  -1.26015   0.23731
F     0.72304  -2.57445   0.42333
C     1.34508  -0.31641  -0.30338
C     2.69739  -0.96519  -0.71114
C     3.72619  -1.10173   0.35908
O     2.78992  -1.41599  -1.82958
N     0.73693   0.42284  -1.40094
C    -0.09068   1.28445  -0.85628
C    -1.16477   2.03452  -1.52690
C     0.42759   1.56198   0.51604
O     0.08461   2.39171   1.31342
O     1.50849   0.73006   0.67758
H    -4.17735   1.56287  -0.12767
H    -4.92145   0.27172   0.84802
H    -5.00825   0.20058  -0.93292
H    -2.88360  -0.72658  -1.02336
H     3.24158  -1.47125   1.28035
H     4.17777  -0.13001   0.59795
H     4.50754  -1.81073   0.03698
H     0.63477  -0.01299  -2.30402
H    -0.78403   2.97483  -1.98230
H    -1.61477   1.42759  -2.32946
H    -1.93561   2.31945  -0.79879
28

C    -4.36731   0.47604  -0.08038
N    -3.14926  -0.30774  -0.14261
C    -2.18649  -0.20144   0.82219
O    -2.39335   0.45494   1.86519
C    -0.93335  -0.83297   0.54286
C     0.25624  -1.28571   0.25021
F     0.72732  -2.57879   0.42268
C     1.36513  -0.29544  -0.31466
C     2.69988  -0.96176  -0.71297
C     3.72662  -1.10289   0.35946
O     2.79096  -1.41896  -1.83052
N     0.73775   0.42318  -1.39887
C    -0.08875   1.28987  -0.85615
C    -1.16545   2.03564  -1.52826
C     0.42695   1.56609   0.51321
O     0.08397   2.39226   1.31588
O     1.50823   0.73099   0.67537
H    -4.17758   1.56291  -0.12773
H    -4.92155   0.27161   0.84792
H    -5.00833   0.20054  -0.93311
H    -2.88371  -0.72717  -1.02290
H     3.24129  -1.47145   1.28029
H     4.17897  -0.13095   0.59842
H     4.50700  -1.81182   0.03717
H     0.63617  -0.01229  -2.30391
H    -0.78562   2.97520  -1.98372
H    -1.61489   1.42698  -2.32920
H    -1.93614   2.31946  -0.79938
28

C    -4.36818   0.47631  -0.08083
N    -3.14918  -0.30583  -0.14272
C    -2.18912  -0.19954   0.82272
O    -2.39358   0.45651   1.86515
C    -0.93833  -0.83979   0.54650
C     0.23516  -1.31127   0.26312
F     0.73161  -2.58313   0.42202
C     1.38517  -0.27447  -0.32594
C     2.70237  -0.95833  -0.71481
C     3.72705  -1.10405   0.35985
O     2.79200  -1.42194  -1.83146
N     0.73857   0.42351  -1.39681
C    -0.08682   1.29530  -0.85601
C    -1.16612   2.03676  -1.52962
C     0.42631   1.57020   0.51038
O     0.08333   2.39281   1.31834
O     1.50797   0.73191   0.67316
H    -4.17781   1.56296  -0.12778
H    -4.92165   0.27149   0.84782
H    -5.00840   0.20049  -0.93330
H    -2.88382  -0.72776  -1.02244
H     3.24099  -1.47165   1.28022
H     4.18017  -0.13190   0.59889
H     4.50647  -1.81291   0.03736
H     0.63757  -0.01159  -2.30380
H    -0.78721   2.97556  -1.98513
H    -1.61500   1.42637  -2.32894
H    -1.93666   2.31946  -0.79998
28

C    -4.36905   0.47658  -0.08129
N    -3.14909  -0.30393  -0.14283
C    -2.19175  -0.19765   0.82324
O    -2.39381   0.45809   1.86511
C    -0.94331  -0.84661   0.55015
C     0.21407  -1.33683   0.27603
F     0.73590  -2.58747   0.42137
C     1.40521  -0.25350  -0.33722
C     2.70486  -0.95490  -0.71665
C     3.72749  -1.10521   0.36023
O     2.79304  -1.42491  -1.83240
N     0.73940   0.42385  -1.39475
C    -0.08489   1.30072  -0.85588
C    -1.16680   2.03788  -1.53099
C     0.42567   1.57431   0.50755
O     0.08269   2.39336   1.32081
O     1.50771   0.73284   0.67095
H    -4.17803   1.56301  -0.12784
H    -4.92176   0.27137   0.84772
H    -5.00848   0.20045  -0.93350
H    -2.88392  -0.72835  -1.02198
H     3.24069  -1.47185   1.28016
H     4.18136  -0.13284   0.59936
H     4.50593  -1.81400   0.03755
H     0.63897  -0.01089  -2.30369
H    -0.78880   2.97593  -1.98654
H    -1.61512   1.42576  -2.32868
H    -1.93718   2.31947  -0.80057
28

C    -4.36991   0.47685  -0.08174
N    -3.14900  -0.30203  -0.14295
C    -2.19439  -0.19575   0.82377
O    -2.39405   0.45966   1.86507
C    -0.94828  -0.85343   0.55379
C     0.19298  -1.36239   0.28894
F     0.74018  -2.59181   0.42071
C     1.42525  -0.23252  -0.34850
C     2.70736  -0.95147  -0.71849
C     3.72792  -1.10637   0.36061
O     2.79408  -1.42789  -1.83333
N     0.74022   0.42418  -1.39269
C    -0.08296   1.30614  -0.85575
C    -1.16747   2.03900  -1.53235
C     0.42504   1.57842   0.50472
O     0.08206   2.39391   1.32327
O     1.50745   0.73376   0.66874
H    -4.17826   1.56305  -0.12790
H    -4.92186   0.27126   0.84762
H    -5.00856   0.20041  -0.93369
H    -2.88403  -0.72894  -1.02153
H     3.24040  -1.47205   1.28009
H     4.18256  -0.13379   0.59983
H     4.50540  -1.81509   0.03774
H     0.64037  -0.01019  -2.30357
H    -0.79039   2.97630  -1.98796
H    -1.61523   1.42516  -2.32842
H    -1.93770   2.31947  -0.80116
28

C    -4.37078   0.47712  -0.08220
N    -3.14892  -0.30013  -0.14306
C    -2.19702  -0.19385   0.82429
O    -2.39428   0.46123   1.86503
C    -0.95326  -0.86025   0.55743
C     0.17189  -1.38795   0.30185
F     0.74447  -2.59616   0.42006
C     1.44529  -0.21155  -0.35978
C     2.70985  -0.94804  -0.72033
C     3.72835  -1.10753   0.36100
O     2.79512  -1.43086  -1.83427
N     0.74104   0.42451  -1.39063
C    -0.08102   1.31156  -0.85561
C    -1.16814   2.04012  -1.53371
C     0.42440   1.58253   0.50189
O     0.08142   2.39446   1.32573
O     1.50719   0.73469   0.66652
H    -4.17849   1.56310  -0.12795
H    -4.92196   0.27114   0.84751
H    -5.00863   0.20036  -0.93388
H    -2.88414  -0.72953  -1.02107
H     3.24010  -1.47224   1.28002
H     4.18376  -0.13473   0.60030
H     4.50486  -1.81618   0.03794
H     0.64177  -0.00949  -2.30346
H    -0.79198   2.97667  -1.98937
H    -1.61535   1.42455  -2.32815
H    -1.93823   2.31948  -0.80175
28

C    -4.37164   0.47739  -0.08265
N    -3.14883  -0.29823  -0.14317
C    -2.19966  -0.19195   0.82482
O    -2.39452   0.46280   1.86499
C    -0.95824  -0.86707   0.56108
C     0.15081  -1.41350   0.31475
F     0.74875  -2.60050   0.41940
C     1.46533  -0.19058  -0.37105
C     2.71234  -0.94461  -0.72216
C     3.72878  -1.10869   0.36138
O     2.79616  -1.43384  -1.83521
N     0.74186   0.42485  -1.38857
C    -0.07909   1.31698  -0.85548
C    -1.16882   2.04124  -1.53508
C     0.42376   1.58664   0.49906
O     0.08078   2.39501   1.32819
O     1.50693   0.73561   0.66431
H    -4.17871   1.56314  -0.12801
H    -4.92206   0.27103   0.84741
H    -5.00871   0.20032  -0.93408
H    -2.88424  -0.73013  -1.02061
H     3.23980  -1.47244   1.27996
H     4.18496  -0.13568   0.60077
H     4.50433  -1.81726   0.03813
H     0.64317  -0.00879  -2.30335
H    -0.79357   2.97703  -1.99078
H    -1.61546   1.42394  -2.32789
H    -1.93875   2.31948  -0.80234
28

C    -4.37251   0.47765  -0.08311
N    -3.14875  -0.29633  -0.14328
C    -2.20229  -0.19006   0.82534
O    -2.39475   0.46437   1.86494
C    -0.96322  -0.87389   0.56472
C     0.12972  -1.43906   0.32766
F     0.75304  -2.60484   0.41875
C     1.48537  -0.16961  -0.38233
C     2.71483  -0.94119  -0.72400
C     3.72922  -1.10985   0.36176
O     2.79719  -1.43681  -1.83615
N     0.74268   0.42518  -1.38651
C    -0.07716   1.32240  -0.85535
C    -1.16949   2.04236  -1.53644
C     0.42312   1.59075   0.49623
O     0.08014   2.39556   1.33065
O     1.50667   0.73654   0.66210
H    -4.17894   1.56319  -0.12806
H    -4.92217   0.27091   0.84731
H    -5.00879   0.20028  -0.93427
H    -2.88435  -0.73072  -1.02015
H     3.23950  -1.47264   1.27989
H     4.18616  -0.13662   0.60124
H     4.50379  -1.81835   0.03832
H     0.64457  -0.00809  -2.30324
H    -0.79516   2.97740  -1.99220
H    -1.61558   1.42333  -2.32763
H    -1.93927   2.31949  -0.80293
28

C    -4.37338   0.47792  -0.08356
N    -3.14866  -0.29443  -0.14339
C    -2.20492  -0.18816   0.82587
O    -2.39499   0.46594   1.86490
C    -0.96820  -0.88071   0.56836
C     0.10863  -1.46462   0.34057
F     0.75733  -2.60918   0.41809
C     1.50541  -0.14864  -0.39361
C     2.71733  -0.93776  -0.72584
C     3.72965  -1.11101   0.36215
O     2.79823  -1.43979  -1.83709
N     0.74351   0.42552  -1.38445
C    -0.07523   1.32782  -0.85522
C    -1.17017   2.04347  -1.53781
C     0.42249   1.59486   0.49340
O     0.07950   2.39612   1.33311
O     1.50641   0.73746   0.65989
H    -4.17916   1.56324  -0.12812
H    -4.92227   0.27080   0.84721
H    -5.00886   0.20023  -0.93446
H    -2.88446  -0.73131  -1.01969
H     3.23921  -1.47284   1.27983
H     4.18736  -0.13757   0.60171
H     4.50326  -1.81944   0.03851
H     0.64597  -0.00739  -2.30313
H    -0.79675   2.97777  -1.99361
H    -1.61569   1.42272  -2.32737
H    -1.93980   2.31949  -0.80352
28

C    -4.37424   0.47819  -0.08402
N    -3.14857  -0.29253  -0.14350
C    -2.20756  -0.18626   0.82640
O    -2.39522   0.46751   1.86486
C    -0.97318  -0.88753   0.57201
C     0.08754  -1.49018   0.35348
F     0.76161  -2.61352   0.41744
C     1.52545  -0.12766  -0.40489
C     2.71982  -0.93433  -0.72768
C     3.73008  -1.11217   0.36253
O     2.79927  -1.44276  -1.83803
N     0.74433   0.42585  -1.38238
C    -0.07330   1.33325  -0.85508
C    -1.17084   2.04459  -1.53917
C     0.42185   1.59897   0.49057
O     0.07886   2.39667   1.33557
O     1.50615   0.73839   0.65768
H    -4.17939   1.56328  -0.12818
H    -4.92237   0.27068   0.84711
H    -5.00894   0.20019  -0.93465
H    -2.88456  -0.73190  -1.01924
H     3.23891  -1.47304   1.27976
H     4.18856  -0.13851   0.60219
H     4.50273  -1.82053   0.03870
H     0.64737  -0.00669  -2.30301
H    -0.79834   2.97814  -1.99502
H    -1.61580   1.42212  -2.32711
H    -1.94032   2.31950  -0.80411
28

C    -4.37511   0.47846  -0.08447
N    -3.14849  -0.29062  -0.14361
C    -2.21019  -0.18436   0.82692
O    -2.39545   0.46908   1.86482
C    -0.97816  -0.89435   0.57565
C     0.06646  -1.51574   0.36639
F     0.76590  -2.61786   0.41678
C     1.54549  -0.10669  -0.41617
C     2.72231  -0.93090  -0.72952
C     3.73051  -1.11334   0.36291
O     2.80031  -1.44574  -1.83897
N     0.74515   0.42619  -1.38032
C    -0.07137   1.33867  -0.85495
C    -1.17151   2.04571  -1.54053
C     0.42121   1.60308   0.48774
O     0.07822   2.39722   1.33803
O     1.50589   0.73931   0.65547
H    -4.17962   1.56333  -0.12823
H    -4.92247   0.27057   0.84701
H    -5.00902   0.20015  -0.93485
H    -2.88467  -0.73249  -1.01878
H     3.23861  -1.47324   1.27970
H     4.18976  -0.13946   0.60266
H     4.50219  -1.82162   0.03890
H     0.64877  -0.00600  -2.30290
H    -0.79993   2.97850  -1.99644
H    -1.61592   1.42151  -2.32684
H    -1.94084   2.31950  -0.80470
28

C    -4.37597   0.47873  -0.08493
N    -3.14840  -0.28872  -0.14372
C    -2.21283  -0.18247   0.82745
O    -2.39569   0.47065   1.86478
C    -0.98314  -0.90117   0.57929
C     0.04537  -1.54130   0.37929
F     0.77019  -2.62220   0.41613
C     1.56553  -0.08572  -0.42745
C     2.72480  -0.92747  -0.73135
C     3.73095  -1.11450   0.36330
O     2.80135  -1.44871  -1.83991
N     0.74597   0.42652  -1.37826
C    -0.06943   1.34409  -0.85482
C    -1.17219   2.04683  -1.54190
C     0.42058   1.60719   0.48491
O     0.07758   2.39777   1.34049
O     1.50563   0.74024   0.65326
H    -4.17984   1.56338  -0.12829
H    -4.92258   0.27045   0.84691
H    -5.00910   0.20010  -0.93504
H    -2.88478  -0.73308  -1.01832
H     3.23832  -1.47344   1.27963
H     4.19096  -0.14040   0.60313
H     4.50166  -1.82271   0.03909
H     0.65017  -0.00530  -2.30279
H    -0.80152   2.97887  -1.99785
H    -1.61603   1.42090  -2.32658
H    -1.94136   2.31951  -0.80530
28

C    -4.37684   0.47900  -0.08538
N    -3.14831  -0.28682  -0.14383
C    -2.21546  -0.18057   0.82797
O    -2.39592   0.47223   1.86474
C    -0.98812  -0.90799   0.58294
C     0.02428  -1.56686   0.39220
F     0.77447  -2.62655   0.41547
C     1.58557  -0.06475  -0.43872
C     2.72730  -0.92404  -0.73319
C     3.73138  -1.11566   0.36368
O     2.80239  -1.45169  -1.84084
N     0.74679   0.42686  -1.37620
C    -0.06750   1.34951  -0.85469
C    -1.17286   2.04795  -1.54326
C     0.41994   1.61131   0.48208
O     0.07694   2.39832   1.34295
O     1.50537   0.74116   0.65105
H    -4.18007   1.56342  -0.12834
H    -4.92268   0.27033   0.84681
H    -5.00917   0.20006  -0.93523
H    -2.88488  -0.73367  -1.01786
H     3.23802  -1.47364   1.27957
H     4.19215  -0.14135   0.60360
H     4.50112  -1.82380   0.03928
H     0.65157  -0.00460  -2.30268
H    -0.80311   2.97924  -1.99926
H    -1.61615   1.42029  -2.32632
H    -1.94189   2.31951  -0.80589
28

C    -4.37771   0.47926  -0.08583
N    -3.14823  -0.28492  -0.14394
C    -2.21809  -0.17867   0.82850
O    -2.39616   0.47380   1.86470
C    -0.99310  -0.91481   0.58658
C     0.00319  -1.59242   0.40511
F     0.77876  -2.63089   0.41482
C     1.60561  -0.04377  -0.45000
C     2.72979  -0.92061  -0.73503
C     3.73181  -1.11682   0.36406
O     2.80343  -1.45466  -1.84178
N     0.74762   0.42719  -1.37414
C    -0.06557   1.35493  -0.85455
C    -1.17354   2.04907  -1.54462
C     0.41930   1.61542   0.47925
O     0.07630   2.39887   1.34542
O     1.50511   0.74209   0.64883
H    -4.18030   1.56347  -0.12840
H    -4.92278   0.27022   0.84671
H    -5.00925   0.20001  -0.93543
H    -2.88499  -0.73426  -1.01740
H     3.23772  -1.47384   1.27950
H     4.19335  -0.14229   0.60407
H     4.50059  -1.82489   0.03947
H     0.65297  -0.00390  -2.30256
H    -0.80470   2.97961  -2.00067
H    -1.61626   1.41969  -2.32606
H    -1.94241   2.31952  -0.80648
28

C    -4.37857   0.47953  -0.08629
N    -3.14814  -0.28302  -0.14405
C    -2.22073  -0.17677   0.82902
O    -2.39639   0.47537   1.86465
C    -0.99808  -0.92163   0.59022
C    -0.01789  -1.61797   0.41802
F     0.78304  -2.63523   0.41416
C     1.62565  -0.02280  -0.46128
C     2.73228  -0.91718  -0.73687
C     3.73224  -1.11798   0.36445
O     2.80447  -1.45764  -1.84272
N     0.74844   0.42752  -1.37208
C    -0.06364   1.36035  -0.85442
C    -1.17421   2.05019  -1.54599
C     0.41866   1.61953   0.47642
O     0.07566   2.39942   1.34788
O     1.50485   0.74302   0.64662
H    -4.18052   1.56351  -0.12846
H    -4.92289   0.27010   0.84661
H    -5.00933   0.19997  -0.93562
H    -2.88510  -0.73485  -1.01695
H     3.23743  -1.47404   1.27944
H     4.19455  -0.14324   0.60454
H     4.50005  -1.82597   0.03966
H     0.65437  -0.00320  -2.30245
H    -0.80629   2.97997  -2.00209
H    -1.61638   1.41908  -2.32580
H    -1.94293   2.31953  -0.80707
28

C    -4.37944   0.47980  -0.08674
N    -3.14805  -0.28112  -0.14416
C    -2.22336  -0.17488   0.82955
O    -2.39663   0.47694   1.86461
C    -1.00305  -0.92845   0.59387
C    -0.03898  -1.64353   0.43093
F     0.78733  -2.63957   0.41351
C     1.64569  -0.00183  -0.47256
C     2.73477  -0.91375  -0.73871
C     3.73268  -1.11914   0.36483
O     2.80550  -1.46061  -1.84366
N     0.74926   0.42786  -1.37002
C    -0.06171   1.36578  -0.85429
C    -1.17488   2.05131  -1.54735
C     0.41803   1.62364   0.47359
O     0.07502   2.39997   1.35034
O     1.50459   0.74394   0.64441
H    -4.18075   1.56356  -0.12851
H    -4.92299   0.26999   0.84651
H    -5.00940   0.19993  -0.93581
H    -2.88520  -0.73545  -1.01649
H     3.23713  -1.47424   1.27937
H     4.19575  -0.14418   0.60501
H     4.49952  -1.82706   0.03986
H     0.65577  -0.00250  -2.30234
H    -0.80788   2.98034  -2.00350
H    -1.61649   1.41847  -2.32553
H    -1.94346   2.31953  -0.80766
28

C    -4.38030   0.48007  -0.08720
N    -3.14797  -0.27922  -0.14427
C    -2.22600  -0.17298   0.83007
O    -2.39686   0.47851   1.86457
C    -1.00803  -0.93527   0.59751
C    -0.06007  -1.66909   0.44383
F     0.79162  -2.64391   0.41285
C     1.66573   0.01914  -0.48384
C     2.73727  -0.91033  -0.74054
C     3.73311  -1.12030   0.36521
O     2.80654  -1.46359  -1.84460
N     0.75008   0.42819  -1.36796
C    -0.05977   1.37120  -0.85416
C    -1.17556   2.05243  -1.54871
C     0.41739   1.62775   0.47076
O     0.07438   2.40052   1.35280
O     1.50433   0.74487   0.64220
H    -4.18098   1.56361  -0.12857
H    -4.92309   0.26987   0.84641
H    -5.00948   0.19988  -0.93600
H    -2.88531  -0.73604  -1.01603
H     3.23683  -1.47444   1.27931
H     4.19695  -0.14513   0.60548
H     4.49898  -1.82815   0.04005
H     0.65717  -0.00180  -2.30223
H    -0.80947   2.98071  -2.00491
H    -1.61661   1.41786  -2.32527
H    -1.94398   2.31954  -0.80825
28

C    -4.38117   0.48034  -0.08765
N    -3.14788  -0.27732  -0.14438
C    -2.22863  -0.17108   0.83060
O    -2.39709   0.48008   1.86453
C    -1.01301  -0.94209   0.60116
C    -0.08116  -1.69465   0.45674
F     0.79590  -2.64825   0.41220
C     1.68577   0.04011  -0.49512
C     2.73976  -0.90690  -0.74238
C     3.73354  -1.12146   0.36560
O     2.80758  -1.46656  -1.84554
N     0.75090   0.42853  -1.36589
C    -0.05784   1.37662  -0.85402
C    -1.17623   2.05354  -1.55008
C     0.41675   1.63186   0.46793
O     0.07374   2.40107   1.35526
O     1.50407   0.74579   0.63999
H    -4.18120   1.56365  -0.12862
H    -4.92319   0.26976   0.84631
H    -5.00956   0.19984  -0.93620
H    -2.88542  -0.73663  -1.01557
H     3.23654  -1.47464   1.27924
H     4.19815  -0.14607   0.60595
H     4.49845  -1.82924   0.04024
H     0.65857  -0.00110  -2.30211
H    -0.81106   2.98108  -2.00633
H    -1.61672   1.41726  -2.32501
H    -1.94450   2.31954  -0.80884
28

C    -4.38204   0.48061  -0.08811
N    -3.14779  -0.27541  -0.14450
C    -2.23126  -0.16918   0.83112
O    -2.39733   0.48165   1.86449
C    -1.01799  -0.94891   0.60480
C    -0.10225  -1.72021   0.46965
F     0.80019  -2.65259   0.41154
C     1.70581   0.06109  -0.50640
C     2.74225  -0.90347  -0.74422
C     3.73397  -1.12262   0.36598
O     2.80862  -1.46954  -1.84648
N     0.75173   0.42886  -1.36383
C    -0.05591   1.38204  -0.85389
C    -1.17691   2.05466  -1.55144
C     0.41611   1.63597   0.46510
O     0.07311   2.40162   1.35772
O     1.50381   0.74672   0.63778
H    -4.18143   1.56370  -0.12868
H    -4.92330   0.26964   0.84621
H    -5.00963   0.19980  -0.93639
H    -2.88552  -0.73722  -1.01511
H     3.23624  -1.47484   1.27918
H     4.19935  -0.14702   0.60642
H     4.49791  -1.83033   0.04043
H     0.65997  -0.00040  -2.30200
H    -0.81265   2.98144  -2.00774
H    -1.61684   1.41665  -2.32475
H    -1.94503   2.31955  -0.80943
28

C    -4.38290   0.48087  -0.08856
N    -3.14771  -0.27351  -0.14461
C    -2.23390  -0.16729   0.83165
O    -2.39756   0.48322   1.86445
C    -1.02297  -0.95573   0.60844
C    -0.12333  -1.74577   0.48256
F     0.80447  -2.65694   0.41089
C     1.72585   0.08206  -0.51767
C     2.74474  -0.90004  -0.74606
C     3.73441  -1.12378   0.36636
O     2.80966  -1.47251  -1.84741
N     0.75255   0.42920  -1.36177
C    -0.05398   1.38746  -0.85376
C    -1.17758   2.05578  -1.55281
C     0.41548   1.64008   0.46227
O     0.07247   2.40217   1.36018
O     1.50355   0.74764   0.63557
H    -4.18165   1.56374  -0.12874
H    -4.92340   0.26953   0.84611
H    -5.00971   0.19975  -0.93658
H    -2.88563  -0.73781  -1.01466
H     3.23594  -1.47504   1.27911
H     4.20055  -0.14796   0.60689
H     4.49738  -1.83142   0.04062
H     0.66137   0.00030  -2.30189
H    -0.81424   2.98181  -2.00915
H    -1.61695   1.41604  -2.32449
H    -1.94555   2.31955  -0.81002
28

C    -4.38204   0.48061  -0.08811
N    -3.14779  -0.27541  -0.14450
C    -2.23126  -0.16918   0.83112
O    -2.39733   0.48165   1.86449
C    -1.01799  -0.94891   0.60480
C    -0.10225  -1.72021   0.46965
F     0.80019  -2.65259   0.41154
C     1.70581   0.06109  -0.50640
C     2.74225  -0.90347  -0.74422
C     3.73397  -1.12262   0.36598
O     2.80862  -1.46954  -1.84648
N     0.75173   0.42886  -1.36383
C    -0.05591   1.38204  -0.85389
C    -1.17691   2.05466  -1.55144
C     0.41611   1.63597   0.46510
O     0.07311   2.40162   1.35772
O     1.50381   0.74672   0.63778
H    -4.18143   1.56370  -0.12868
H    -4.92330   0.26964   0.84621
H    -5.00963   0.19980  -0.93639
H    -2.88552  -0.73722  -1.01511
H     3.23624  -1.47484   1.27918
H     4.19935  -0.14702   0.60642
H     4.49791  -1.83033   0.04043
H     0.65997  -0.00040  -2.30200
H    -0.81265   2.98144  -2.00774
H    -1.61684   1.41665  -2.32475
H    -1.94503   2.31955  -0.80943
28

C    -4.38117   0.48034  -0.08765
N    -3.14788  -0.27732  -0.14438
C    -2.22863  -0.17108   0.83060
O    -2.39709   0.48008   1.86453
C    -1.01301  -0.94209   0.60116
C    -0.08116  -1.69465   0.45674
F     0.79590  -2.64825   0.41220
C     1.68577   0.04011  -0.49512
C     2.73976  -0.90690  -0.74238
C     3.73354  -1.12146   0.36560
O     2.80758  -1.46656  -1.84554
N     0.75090   0.42853  -1.36589
C    -0.05784   1.37662  -0.85402
C    -1.17623   2.05354  -1.55008
C     0.41675   1.63186   0.46793
O     0.07374   2.40107   1.35526
O     1.50407   0.74579   0.63999
H    -4.18120   1.56365  -0.12862
H    -4.92319   0.26976   0.84631
H    -5.00956   0.19984  -0.93620
H    -2.88542  -0.73663  -1.01557
H     3.23654  -1.47464   1.27924
H     4.19815  -0.14607   0.60595
H     4.49845  -1.82924   0.04024
H     0.65857  -0.00110  -2.30211
H    -0.81106   2.98108  -2.00633
H    -1.61672   1.41726  -2.32501
H    -1.94450   2.31954  -0.80884
28

C    -4.38030   0.48007  -0.08720
N    -3.14797  -0.27922  -0.14427
C    -2.22600  -0.17298   0.83007
O    -2.39686   0.47851   1.86457
C    -1.00803  -0.93527   0.59751
C    -0.06007  -1.66909   0.44383
F     0.79162  -2.64391   0.41285
C     1.66573   0.01914  -0.48384
C     2.73727  -0.91033  -0.74054
C     3.73311  -1.12030   0.36521
O     2.80654  -1.46359  -1.84460
N     0.75008   0.42819  -1.36796
C    -0.05977   1.37120  -0.85416
C    -1.17556   2.05243  -1.54871
C     0.41739   1.62775   0.47076
O     0.07438   2.40052   1.35280
O     1.50433   0.74487   0.64220
H    -4.18098   1.56361  -0.12857
H    -4.92309   0.26987   0.84641
H    -5.00948   0.19988  -0.93600
H    -2.88531  -0.73604  -1.01603
H     3.23683  -1.47444   1.27931
H     4.19695  -0.14513   0.60548
H     4.49898  -1.82815   0.04005
H     0.65717  -0.00180  -2.30223
H    -0.80947   2.98071  -2.00491
H    -1.61661   1.41786  -2.32527
H    -1.94398   2.31954  -0.80825
28

C    -4.37944   0.47980  -0.08674
N    -3.14805  -0.28112  -0.14416
C    -2.22336  -0.17488   0.82955
O    -2.39663   0.47694   1.86461
C    -1.00305  -0.92845   0.59387
C    -0.03898  -1.64353   0.43093
F     0.78733  -2.63957   0.41351
C     1.64569  -0.00183  -0.47256
C     2.73477  -0.91375  -0.73871
C     3.73268  -1.11914   0.36483
O     2.80550  -1.46061  -1.84366
N     0.74926   0.42786  -1.37002
C    -0.06171   1.36578  -0.85429
C    -1.17488   2.05131  -1.54735
C     0.41803   1.62364   0.47359
O     0.07502   2.39997   1.35034
O     1.50459   0.74394   0.64441
H    -4.18075   1.56356  -0.12851
H    -4.92299   0.26999   0.84651
H    -5.00940   0.19993  -0.93581
H    -2.88520  -0.73545  -1.01649
H     3.23713  -1.47424   1.27937
H     4.19575  -0.14418   0.60501
H     4.49952  -1.82706   0.03986
H     0.65577  -0.00250  -2.30234
H    -0.80788   2.98034  -2.00350
H    -1.61649   1.41847  -2.32553
H    -1.94346   2.31953  -0.80766
28

C    -4.37857   0.47953  -0.08629
N    -3.14814  -0.28302  -0.14405
C    -2.22073  -0.17677   0.82902
O    -2.39639   0.47537   1.86465
C    -0.99808  -0.92163   0.59022
C    -0.01789  -1.61797   0.41802
F     0.78304  -2.63523   0.41416
C     1.62565  -0.02280  -0.46128
C     2.73228  -0.91718  -0.73687
C     3.73224  -1.11798   0.36445
O     2.80447  -1.45764  -1.84272
N     0.74844   0.42752  -1.37208
C    -0.06364   1.36035  -0.85442
C    -1.17421   2.05019  -1.54599
C     0.41866   1.61953   0.47642
O     0.07566   2.39942   1.34788
O     1.50485   0.74302   0.64662
H    -4.18052   1.56351  -0.12846
H    -4.92289   0.27010   0.84661
H    -5.00933   0.19997  -0.93562
H    -2.88510  -0.73485  -1.01695
H     3.23743  -1.47404   1.27944
H     4.19455  -0.14324   0.60454
H     4.50005  -1.82597   0.03966
H     0.65437  -0.00320  -2.30245
H    -0.80629   2.97997  -2.00209
H    -1.61638   1.41908  -2.32580
H    -1.94293   2.31953  -0.80707
28

C    -4.37771   0.47926  -0.08583
N    -3.14823  -0.28492  -0.14394
C    -2.21809  -0.17867   0.82850
O    -2.39616   0.47380   1.86470
C    -0.99310  -0.91481   0.58658
C     0.00319  -1.59242   0.40511
F     0.77876  -2.63089   0.41482
C     1.60561  -0.04377  -0.45000
C     2.72979  -0.92061  -0.73503
C     3.73181  -1.11682   0.36406
O     2.80343  -1.45466  -1.84178
N     0.74762   0.42719  -1.37414
C    -0.06557   1.35493  -0.85455
C    -1.17354   2.04907  -1.54462
C     0.41930   1.61542   0.47925
O     0.07630   2.39887   1.34542
O     1.50511   0.74209   0.64883
H    -4.18030   1.56347  -0.12840
H    -4.92278   0.27022   0.84671
H    -5.00925   0.20001  -0.93543
H    -2.88499  -0.73426  -1.01740
H     3.23772  -1.47384   1.27950
H     4.19335  -0.14229   0.60407
H     4.50059  -1.82489   0.03947
H     0.65297  -0.00390  -2.30256
H    -0.80470   2.97961  -2.00067
H    -1.61626   1.41969  -2.32606
H    -1.94241   2.31952  -0.80648
28

C    -4.37684   0.47900  -0.08538
N    -3.14831  -0.28682  -0.14383
C    -2.21546  -0.18057   0.82797
O    -2.39592   0.47223   1.86474
C    -0.98812  -0.90799   0.58294
C     0.02428  -1.56686   0.39220
F     0.77447  -2.62655   0.41547
C     1.58557  -0.06475  -0.43872
C     2.72730  -0.92404  -0.73319
C     3.73138  -1.11566   0.36368
O     2.80239  -1.45169  -1.84084
N     0.74679   0.42686  -1.37620
C    -0.06750   1.34951  -0.85469
C    -1.17286   2.04795  -1.54326
C     0.41994   1.61131   0.48208
O     0.07694   2.39832   1.34295
O     1.50537   0.74116   0.65105
H    -4.18007   1.56342  -0.12834
H    -4.92268   0.27033   0.84681
H    -5.00917   0.20006  -0.93523
H    -2.88488  -0.73367  -1.01786
H     3.23802  -1.47364   1.27957
H     4.19215  -0.14135   0.60360
H     4.50112  -1.82380   0.03928
H     0.65157  -0.00460  -2.30268
H    -0.80311   2.97924  -1.99926
H    -1.61615   1.42029  -2.32632
H    -1.94189   2.31951  -0.80589
28

C    -4.37597   0.47873  -0.08493
N    -3.14840  -0.28872  -0.14372
C    -2.21283  -0.18247   0.82745
O    -2.39569   0.47065   1.86478
C    -0.98314  -0.90117   0.57929
C     0.04537  -1.54130   0.37929
F     0.77019  -2.62220   0.41613
C     1.56553  -0.08572  -0.42745
C     2.72480  -0.92747  -0.73135
C     3.73095  -1.11450   0.36330
O     2.80135  -1.44871  -1.83991
N     0.74597   0.42652  -1.37826
C    -0.06943   1.34409  -0.85482
C    -1.17219   2.04683  -1.54190
C     0.42058   1.60719   0.48491
O     0.07758   2.39777   1.34049
O     1.50563   0.74024   0.65326
H    -4.17984   1.56338  -0.12829
H    -4.92258   0.27045   0.84691
H    -5.00910   0.20010  -0.93504
H    -2.88478  -0.73308  -1.01832
H     3.23832  -1.47344   1.27963
H     4.19096  -0.14040   0.60313
H     4.50166  -1.82271   0.03909
H     0.65017  -0.00530  -2.30279
H    -0.80152   2.97887  -1.99785
H    -1.61603   1.42090  -2.32658
H    -1.94136   2.31951  -0.80530
28

C    -4.37511   0.47846  -0.08447
N    -3.14849  -0.29062  -0.14361
C    -2.21019  -0.18436   0.82692
O    -2.39545   0.46908   1.86482
C    -0.97816  -0.89435   0.57565
C     0.06646  -1.51574   0.36639
F     0.76590  -2.61786   0.41678
C     1.54549  -0.10669  -0.41617
C     2.72231  -0.93090  -0.72952
C     3.73051  -1.11334   0.36291
O     2.80031  -1.44574  -1.83897
N     0.74515   0.42619  -1.38032
C    -0.07137   1.33867  -0.85495
C    -1.17151   2.04571  -1.54053
C     0.42121   1.60308   0.48774
O     0.07822   2.39722   1.33803
O     1.50589   0.73931   0.65547
H    -4.17962   1.56333  -0.12823
H    -4.92247   0.27057   0.84701
H    -5.00902   0.20015  -0.93485
H    -2.88467  -0.73249  -1.01878
H     3.23861  -1.47324   1.27970
H     4.18976  -0.13946   0.60266
H     4.50219  -1.82162   0.03890
H     0.64877  -0.00600  -2.30290
H    -0.79993   2.97850  -1.99644
H    -1.61592   1.42151  -2.32684
H    -1.94084   2.31950  -0.80470
28

C    -4.37424   0.47819  -0.08402
N    -3.14857  -0.29253  -0.14350
C    -2.20756  -0.18626   0.82640
O    -2.39522   0.46751   1.86486
C    -0.97318  -0.88753   0.57201
C     0.08754  -1.49018   0.35348
F     0.76161  -2.61352   0.41744
C     1.52545  -0.12766  -0.40489
C     2.71982  -0.93433  -0.72768
C     3.73008  -1.11217   0.36253
O     2.79927  -1.44276  -1.83803
N     0.74433   0.42585  -1.38238
C    -0.07330   1.33325  -0.85508
C    -1.17084   2.04459  -1.53917
C     0.42185   1.59897   0.49057
O     0.07886   2.39667   1.33557
O     1.50615   0.73839   0.65768
H    -4.17939   1.56328  -0.12818
H    -4.92237   0.27068   0.84711
H    -5.00894   0.20019  -0.93465
H    -2.88456  -0.73190  -1.01924
H     3.23891  -1.47304   1.27976
H     4.18856  -0.13851   0.60219
H     4.50273  -1.82053   0.03870
H     0.64737  -0.00669  -2.30301
H    -0.79834   2.97814  -1.99502
H    -1.61580   1.42212  -2.32711
H    -1.94032   2.31950  -0.80411
28

C    -4.37338   0.47792  -0.08356
N    -3.14866  -0.29443  -0.14339
C    -2.20492  -0.18816   0.82587
O    -2.39499   0.46594   1.86490
C    -0.96820  -0.88071   0.56836
C     0.10863  -1.46462   0.34057
F     0.75733  -2.60918   0.41809
C     1.50541  -0.14864  -0.39361
C     2.71733  -0.93776  -0.72584
C     3.72965  -1.11101   0.36215
O     2.79823  -1.43979  -1.83709
N     0.74351   0.42552  -1.38445
C    -0.07523   1.32782  -0.85522
C    -1.17017   2.04347  -1.53781
C     0.42249   1.59486   0.49340
O     0.07950   2.39612   1.33311
O     1.50641   0.73746   0.65989
H    -4.17916   1.56324  -0.12812
H    -4.92227   0.27080   0.84721
H    -5.00886   0.20023  -0.93446
H    -2.88446  -0.73131  -1.01969
H     3.23921  -1.47284   1.27983
H     4.18736  -0.13757   0.60171
H     4.50326  -1.81944   0.03851
H     0.64597  -0.00739  -2.30313
H    -0.79675   2.97777  -1.99361
H    -1.61569   1.42272  -2.32737
H    -1.93980   2.31949  -0.80352
28

C    -4.37251   0.47765  -0.08311
N    -3.14875  -0.29633  -0.14328
C    -2.20229  -0.19006   0.82534
O    -2.39475   0.46437   1.86494
C    -0.96322  -0.87389   0.56472
C     0.12972  -1.43906   0.32766
F     0.75304  -2.60484   0.41875
C     1.48537  -0.16961  -0.38233
C     2.71483  -0.94119  -0.72400
C     3.72922  -1.10985   0.36176
O     2.79719  -1.43681  -1.83615
N     0.74268   0.42518  -1.38651
C    -0.07716   1.32240  -0.85535
C    -1.16949   2.04236  -1.53644
C     0.42312   1.59075   0.49623
O     0.08014   2.39556   1.33065
O     1.50667   0.73654   0.66210
H    -4.17894   1.56319  -0.12806
H    -4.92217   0.27091   0.84731
H    -5.00879   0.20028  -0.93427
H    -2.88435  -0.73072  -1.02015
H     3.23950  -1.47264   1.27989
H     4.18616  -0.13662   0.60124
H     4.50379  -1.81835   0.03832
H     0.64457  -0.00809  -2.30324
H    -0.79516   2.97740  -1.99220
H    -1.61558   1.42333  -2.32763
H    -1.93927   2.31949  -0.80293
28

C    -4.37164   0.47739  -0.08265
N    -3.14883  -0.29823  -0.14317
C    -2.19966  -0.19195   0.82482
O    -2.39452   0.46280   1.86499
C    -0.95824  -0.86707   0.56108
C     0.15081  -1.41350   0.31475
F     0.74875  -2.60050   0.41940
C     1.46533  -0.19058  -0.37105
C     2.71234  -0.94461  -0.72216
C     3.72878  -1.10869   0.36138
O     2.79616  -1.43384  -1.83521
N     0.74186   0.42485  -1.38857
C    -0.07909   1.31698  -0.85548
C    -1.16882   2.04124  -1.53508
C     0.42376   1.58664   0.49906
O     0.08078   2.39501   1.32819
O     1.50693   0.73561   0.66431
H    -4.17871   1.56314  -0.12801
H    -4.92206   0.27103   0.84741
H    -5.00871   0.20032  -0.93408
H    -2.88424  -0.73013  -1.02061
H     3.23980  -1.47244   1.27996
H     4.18496  -0.13568   0.60077
H     4.50433  -1.81726   0.03813
H     0.64317  -0.00879  -2.30335
H    -0.79357   2.97703  -1.99078
H    -1.61546   1.42394  -2.32789
H    -1.93875   2.31948  -0.80234
28

C    -4.37078   0.47712  -0.08220
N    -3.14892  -0.30013  -0.14306
C    -2.19702  -0.19385   0.82429
O    -2.39428   0.46123   1.86503
C    -0.95326  -0.86025   0.55743
C     0.17189  -1.38795   0.30185
F     0.74447  -2.59616   0.42006
C     1.44529  -0.21155  -0.35978
C     2.70985  -0.94804  -0.72033
C     3.72835  -1.10753   0.36100
O     2.79512  -1.43086  -1.83427
N     0.74104   0.42451  -1.39063
C    -0.08102   1.31156  -0.85561
C    -1.16814   2.04012  -1.53371
C     0.42440   1.58253   0.50189
O     0.08142   2.39446   1.32573
O     1.50719   0.73469   0.66652
H    -4.17849   1.56310  -0.12795
H    -4.92196   0.27114   0.84751
H    -5.00863   0.20036  -0.93388
H    -2.88414  -0.72953  -1.02107
H     3.24010  -1.47224   1.28002
H     4.18376  -0.13473   0.60030
H     4.50486  -1.81618   0.03794
H     0.64177  -0.00949  -2.30346
H    -0.79198   2.97667  -1.98937
H    -1.61535   1.42455  -2.32815
H    -1.93823   2.31948  -0.80175
28

C    -4.36991   0.47685  -0.08174
N    -3.14900  -0.30203  -0.14295
C    -2.19439  -0.19575   0.82377
O    -2.39405   0.45966   1.86507
C    -0.94828  -0.85343   0.55379
C     0.19298  -1.36239   0.28894
F     0.74018  -2.59181   0.42071
C     1.42525  -0.23252  -0.34850
C     2.70736  -0.95147  -0.71849
C     3.72792  -1.10637   0.36061
O     2.79408  -1.42789  -1.83333
N     0.74022   0.42418  -1.39269
C    -0.08296   1.30614  -0.85575
C    -1.16747   2.03900  -1.53235
C     0.42504   1.57842   0.50472
O     0.08206   2.39391   1.32327
O     1.50745   0.73376   0.66874
H    -4.17826   1.56305  -0.12790
H    -4.92186   0.27126   0.84762
H    -5.00856   0.20041  -0.93369
H    -2.88403  -0.72894  -1.02153
H     3.24040  -1.47205   1.28009
H     4.18256  -0.13379   0.59983
H     4.50540  -1.81509   0.03774
H     0.64037  -0.01019  -2.30357
H    -0.79039   2.97630  -1.98796
H    -1.61523   1.42516  -2.32842
H    -1.93770   2.31947  -0.80116
28

C    -4.36905   0.47658  -0.08129
N    -3.14909  -0.30393  -0.14283
C    -2.19175  -0.19765   0.82324
O    -2.39381   0.45809   1.86511
C    -0.94331  -0.84661   0.55015
C     0.21407  -1.33683   0.27603
F     0.73590  -2.58747   0.42137
C     1.40521  -0.25350  -0.33722
C     2.70486  -0.95490  -0.71665
C     3.72749  -1.10521   0.36023
O     2.79304  -1.42491  -1.83240
N     0.73940   0.42385  -1.39475
C    -0.08489   1.30072  -0.85588
C    -1.16680   2.03788  -1.53099
C     0.42567   1.57431   0.50755
O     0.08269   2.39336   1.32081
O     1.50771   0.73284   0.67095
H    -4.17803   1.56301  -0.12784
H    -4.92176   0.27137   0.84772
H    -5.00848   0.20045  -0.93350
H    -2.88392  -0.72835  -1.02198
H     3.24069  -1.47185   1.28016
H     4.18136  -0.13284   0.59936
H     4.50593  -1.81400   0.03755
H     0.63897  -0.01089  -2.30369
H    -0.78880   2.97593  -1.98654
H    -1.61512   1.42576  -2.32868
H    -1.93718   2.31947  -0.80057
28

C    -4.36818   0.47631  -0.08083
N    -3.14918  -0.30583  -0.14272
C    -2.18912  -0.19954   0.82272
O    -2.39358   0.45651   1.86515
C    -0.93833  -0.83979   0.54650
C     0.23516  -1.31127   0.26312
F     0.73161  -2.58313   0.42202
C     1.38517  -0.27447  -0.32594
C     2.70237  -0.95833  -0.71481
C     3.72705  -1.10405   0.35985
O     2.79200  -1.42194  -1.83146
N     0.73857   0.42351  -1.39681
C    -0.08682   1.29530  -0.85601
C    -1.16612   2.03676  -1.52962
C     0.42631   1.57020   0.51038
O     0.08333   2.39281   1.31834
O     1.50797   0.73191   0.67316
H    -4.17781   1.56296  -0.12778
H    -4.92165   0.27149   0.84782
H    -5.00840   0.20049  -0.93330
H    -2.88382  -0.72776  -1.02244
H     3.24099  -1.47165   1.28022
H     4.18017  -0.13190   0.59889
H     4.50647  -1.81291   0.03736
H     0.63757  -0.01159  -2.30380
H    -0.78721   2.97556  -1.98513
H    -1.61500   1.42637  -2.32894
H    -1.93666   2.31946  -0.79998
28

C    -4.36731   0.47604  -0.08038
N    -3.14926  -0.30774  -0.14261
C    -2.18649  -0.20144   0.82219
O    -2.39335   0.45494   1.86519
C    -0.93335  -0.83297   0.54286
C     0.25624  -1.28571   0.25021
F     0.72732  -2.57879   0.42268
C     1.36513  -0.29544  -0.31466
C     2.69988  -0.96176  -0.71297
C     3.72662  -1.10289   0.35946
O     2.79096  -1.41896  -1.83052
N     0.73775   0.42318  -1.39887
C    -0.08875   1.28987  -0.85615
C    -1.16545   2.03564  -1.52826
C     0.42695   1.56609   0.51321
O     0.08397   2.39226   1.31588
O     1.50823   0.73099   0.67537
H    -4.17758   1.56291  -0.12773
H    -4.92155   0.27161   0.84792
H    -5.00833   0.20054  -0.93311
H    -2.88371  -0.72717  -1.02290
H     3.24129  -1.47145   1.28029
H     4.17897  -0.13095   0.59842
H     4.50700  -1.81182   0.03717
H     0.63617  -0.01229  -2.30391
H    -0.78562   2.97520  -1.98372
H    -1.61489   1.42698  -2.32920
H    -1.93614   2.31946  -0.79938
28

C    -4.36645   0.47578  -0.07992
N    -3.14935  -0.30964  -0.14250
C    -2.18385  -0.20334   0.82167
O    -2.39311   0.45337   1.86523
C    -0.92837  -0.82615   0.53922
C     0.27733  -1.26015   0.23731
F     0.72304  -2.57445   0.42333
C     1.34508  -0.31641  -0.30338
C     2.69739  -0.96519  -0.71114
C     3.72619  -1.10173   0.35908
O     2.78992  -1.41599  -1.82958
N     0.73693   0.42284  -1.40094
C    -0.09068   1.28445  -0.85628
C    -1.16477   2.03452  -1.52690
C     0.42759   1.56198   0.51604
O     0.08461   2.39171   1.31342
O     1.50849   0.73006   0.67758
H    -4.17735   1.56287  -0.12767
H    -4.92145   0.27172   0.84802
H    -5.00825   0.20058  -0.93292
H    -2.88360  -0.72658  -1.02336
H     3.24158  -1.47125   1.28035
H     4.17777  -0.13001   0.59795
H     4.50754  -1.81073   0.03698
H     0.63477  -0.01299  -2.30402
H    -0.78403   2.97483  -1.98230
H    -1.61477   1.42759  -2.32946
H    -1.93561   2.31945  -0.79879
