13

C -2.102952257 -1.291729776 0.035839317
O 0.151989519 -2.829284423 -0.359376663
C 2.148669985 -1.441146036 0.134512463
C 1.564050781 1.072015231 0.815109704
N -0.838593614 2.756226364 -2.243191913
C -1.191676129 1.483350820 0.023491015
H -2.885337442 -1.855957172 1.862558212
H -3.415831677 -1.730792466 -1.486095648
H 2.024267028 -0.429180784 2.645742279
H 3.969837300 -2.294877869 -0.249797189
H 2.957471123 2.557593698 0.951350190
H -0.125040267 1.522647373 -3.542839017
H -2.272414335 2.591425106 1.392386472

