9

C -0.163289307 -1.906688079 0.354563209
C -2.637362005 -2.139806943 0.066392428
C -4.576997686 -1.314856660 1.948798585
H -3.700809709 -0.495406576 3.625069203
H -5.848034470 0.091722336 1.128122579
H -5.751531051 -2.906965168 2.542777301
H -3.357573122 -2.987707062 -1.662033874
H 1.148763982 -2.537505985 -1.084306010
H 0.642975988 -1.072203372 2.045811266

