16

C 3.887026062 0.865346770 -0.541476077
C 0.772568379 -2.011704620 0.280988196
C -1.591652858 -0.985005305 -0.360171274
C -3.382080999 -0.188695749 1.743066615
C -0.907208285 1.907836938 -1.940414211
O -2.416515722 3.273141614 -2.741716858
H 4.007341579 1.740863856 1.317498081
H 4.982738760 -0.867446520 -0.562661551
H 4.769757291 2.144417270 -1.910102399
H 1.615869887 -3.439853309 -0.911575971
H 1.397597524 -2.004961756 2.228886686
H -2.539640828 -1.929327131 -1.926903406
H -2.368695296 0.833200941 3.222860593
H -4.876520354 1.040426928 1.027897401
H -4.268766027 -1.836201597 2.609002545
H 1.617377643 1.534357666 -1.521903029

