11

C -0.587823632 3.758761789 -2.006917793
C -0.548336160 1.467407258 -0.982956880
N -2.775984528 0.001696842 -1.504657312
O -2.731359061 -2.102619495 -0.642979522
C 1.518297620 0.348284707 0.609530765
O 2.720780847 -1.719454299 -0.564629719
H 1.541516326 -3.099506283 -0.573369154
H 0.738657622 -0.191103789 2.452081993
H 2.964414713 1.779300697 0.933901460
H -2.214261113 4.346418123 -3.102917465
H 0.965853044 5.070847033 -1.782498208

