10

N 3.456461280 0.798875955 -0.534632282
C 2.597867164 -1.082776617 0.625446794
O 0.137420619 -1.749576609 0.574758576
C -1.442623500 -0.347686628 -0.935702634
C -3.802015692 0.224128246 -0.023555795
N -5.896126223 0.717541312 0.755402768
H 5.346500117 0.958346674 -0.274485724
H 3.633273959 -2.428397318 1.790181267
H -0.676792467 0.591967858 -2.572160104
H -3.403307895 2.280774729 0.610705853

