17

C -3.999008340 0.585994641 -2.022859711
C -2.593274581 -1.266798827 -1.098709105
C 0.225650156 -1.340403244 -0.976928521
C 1.836734141 1.082048241 -1.418953168
C 3.023610271 0.722323018 1.182094820
C 1.016287038 0.735534698 3.166669719
C 1.424245573 -1.611227926 1.650230116
H -6.042410225 0.464700510 -2.033739507
H -0.686879598 1.848749454 2.902609841
H -3.170906750 2.283801296 -2.815604715
H -3.528187895 -2.931272016 -0.331525577
H 0.903038510 -2.857475358 -2.204958672
H 0.814163178 2.854956825 -1.677862277
H 3.164716669 0.850888607 -2.973834129
H 4.993847950 1.019602845 1.635861281
H 1.685676559 0.648529893 5.098234513
H 1.964391434 -3.380834422 2.519918890

