29

C     3.90550   0.85045   1.62249
N     2.70428   0.98088   0.82367
C     2.10120  -0.08645   0.29258
O     2.47886  -1.25471   0.39344
C     0.87027   0.20514  -0.52514
C     0.33944  -0.84773  -1.31564
N     0.01807  -1.75095  -1.98034
O     0.37113   1.39070  -0.42098
N    -0.76967   1.93371  -0.92248
C    -1.32474   1.27728  -1.94446
N    -1.92060   0.94111  -2.90291
C    -1.84494   0.22495   1.07941
C    -2.91358  -0.09563   0.13230
O    -3.03545  -1.11873  -0.53874
C    -0.90792  -0.57760   1.60731
C    -0.74794  -2.03661   1.29131
C     0.05632  -0.00504   2.62019
H     3.69105   0.45379   2.61590
H     4.61402   0.17710   1.11331
H     4.35953   1.84588   1.71006
H     2.22907   1.87337   0.75574
H    -1.88435   1.29438   1.41784
H    -3.72787   0.68529   0.09185
H     0.30662  -2.35507   1.17559
H    -1.14768  -2.47351   2.17429
H    -1.32040  -2.33930   0.40301
H     0.25780   1.09287   2.48517
H     1.01299  -0.53098   2.68980
H    -0.49041  -0.13417   3.53289
29

C     3.90540   0.85084   1.62082
N     2.70259   0.97953   0.82363
C     2.09853  -0.08916   0.29657
O     2.48055  -1.25626   0.39465
C     0.85836   0.19735  -0.50685
C     0.33937  -0.85019  -1.31173
N     0.01979  -1.74928  -1.98178
O     0.37194   1.39083  -0.42277
N    -0.78153   1.91706  -0.90739
C    -1.32823   1.27590  -1.94090
N    -1.91909   0.94404  -2.90304
C    -1.83785   0.23470   1.06641
C    -2.91454  -0.09385   0.13112
O    -3.03382  -1.11685  -0.53876
C    -0.89076  -0.56980   1.58824
C    -0.74585  -2.03231   1.28712
C     0.05761  -0.00206   2.61582
H     3.69152   0.45393   2.61553
H     4.61406   0.17743   1.11265
H     4.35925   1.84613   1.70934
H     2.22768   1.87257   0.75671
H    -1.88519   1.29448   1.41889
H    -3.72952   0.68422   0.09399
H     0.30640  -2.35648   1.17716
H    -1.15023  -2.46858   2.17319
H    -1.31884  -2.33881   0.40146
H     0.25911   1.09369   2.48557
H     1.01272  -0.53058   2.69130
H    -0.49369  -0.13398   3.52910
29

C     3.90529   0.85124   1.61916
N     2.70089   0.97817   0.82360
C     2.09586  -0.09186   0.30056
O     2.48224  -1.25781   0.39587
C     0.84645   0.18957  -0.48857
C     0.33929  -0.85265  -1.30782
N     0.02152  -1.74762  -1.98322
O     0.37275   1.39095  -0.42456
N    -0.79338   1.90042  -0.89229
C    -1.33172   1.27452  -1.93734
N    -1.91758   0.94697  -2.90318
C    -1.83076   0.24446   1.05342
C    -2.91550  -0.09207   0.12995
O    -3.03219  -1.11497  -0.53878
C    -0.87359  -0.56201   1.56917
C    -0.74376  -2.02800   1.28293
C     0.05891   0.00092   2.61146
H     3.69199   0.45408   2.61517
H     4.61410   0.17776   1.11199
H     4.35898   1.84638   1.70863
H     2.22629   1.87177   0.75768
H    -1.88602   1.29457   1.41993
H    -3.73118   0.68316   0.09613
H     0.30617  -2.35788   1.17873
H    -1.15278  -2.46365   2.17209
H    -1.31728  -2.33833   0.39990
H     0.26043   1.09451   2.48597
H     1.01245  -0.53018   2.69280
H    -0.49697  -0.13379   3.52530
29

C     3.90519   0.85163   1.61749
N     2.69920   0.97681   0.82357
C     2.09320  -0.09457   0.30455
O     2.48394  -1.25936   0.39708
C     0.83454   0.18178  -0.47028
C     0.33922  -0.85511  -1.30391
N     0.02324  -1.74595  -1.98466
O     0.37355   1.39108  -0.42635
N    -0.80524   1.88377  -0.87720
C    -1.33521   1.27314  -1.93377
N    -1.91607   0.94991  -2.90332
C    -1.82367   0.25422   1.04043
C    -2.91646  -0.09030   0.12878
O    -3.03057  -1.11309  -0.53881
C    -0.85643  -0.55422   1.55010
C    -0.74168  -2.02369   1.27874
C     0.06020   0.00390   2.60709
H     3.69247   0.45422   2.61480
H     4.61413   0.17810   1.11133
H     4.35871   1.84663   1.70791
H     2.22490   1.87097   0.75865
H    -1.88685   1.29467   1.42098
H    -3.73283   0.68209   0.09827
H     0.30595  -2.35929   1.18030
H    -1.15533  -2.45872   2.17099
H    -1.31571  -2.33784   0.39835
H     0.26174   1.09533   2.48637
H     1.01218  -0.52978   2.69430
H    -0.50025  -0.13360   3.52151
29

C     3.90508   0.85202   1.61582
N     2.69751   0.97545   0.82354
C     2.09053  -0.09728   0.30854
O     2.48563  -1.26091   0.39829
C     0.82263   0.17400  -0.45199
C     0.33914  -0.85757  -1.29999
N     0.02497  -1.74428  -1.98610
O     0.37436   1.39121  -0.42814
N    -0.81709   1.86713  -0.86210
C    -1.33870   1.27176  -1.93021
N    -1.91456   0.95284  -2.90346
C    -1.81658   0.26397   1.02743
C    -2.91742  -0.08852   0.12761
O    -3.02894  -1.11121  -0.53883
C    -0.83927  -0.54642   1.53103
C    -0.73959  -2.01938   1.27455
C     0.06149   0.00688   2.60272
H     3.69294   0.45436   2.61444
H     4.61417   0.17843   1.11067
H     4.35844   1.84688   1.70719
H     2.22351   1.87017   0.75963
H    -1.88769   1.29476   1.42202
H    -3.73449   0.68102   0.10041
H     0.30573  -2.36069   1.18187
H    -1.15788  -2.45379   2.16989
H    -1.31415  -2.33735   0.39680
H     0.26305   1.09615   2.48677
H     1.01191  -0.52938   2.69580
H    -0.50352  -0.13342   3.51772
29

C     3.90498   0.85241   1.61415
N     2.69582   0.97410   0.82350
C     2.08787  -0.09998   0.31253
O     2.48732  -1.26245   0.39951
C     0.81072   0.16622  -0.43370
C     0.33907  -0.86003  -1.29608
N     0.02669  -1.74262  -1.98754
O     0.37516   1.39133  -0.42993
N    -0.82895   1.85049  -0.84700
C    -1.34219   1.27038  -1.92665
N    -1.91305   0.95577  -2.90360
C    -1.80949   0.27373   1.01444
C    -2.91837  -0.08674   0.12644
O    -3.02731  -1.10933  -0.53885
C    -0.82210  -0.53863   1.51196
C    -0.73750  -2.01507   1.27036
C     0.06279   0.00987   2.59835
H     3.69341   0.45450   2.61407
H     4.61421   0.17876   1.11001
H     4.35817   1.84713   1.70648
H     2.22212   1.86937   0.76060
H    -1.88852   1.29485   1.42307
H    -3.73615   0.67996   0.10255
H     0.30551  -2.36210   1.18344
H    -1.16043  -2.44886   2.16880
H    -1.31259  -2.33687   0.39525
H     0.26436   1.09697   2.48717
H     1.01164  -0.52898   2.69730
H    -0.50680  -0.13323   3.51393
29

C     3.90488   0.85280   1.61249
N     2.69413   0.97274   0.82347
C     2.08520  -0.10269   0.31651
O     2.48902  -1.26400   0.40072
C     0.79881   0.15843  -0.41541
C     0.33899  -0.86249  -1.29217
N     0.02842  -1.74095  -1.98898
O     0.37597   1.39146  -0.43172
N    -0.84081   1.83384  -0.83191
C    -1.34568   1.26900  -1.92309
N    -1.91154   0.95871  -2.90373
C    -1.80239   0.28348   1.00144
C    -2.91933  -0.08497   0.12527
O    -3.02569  -1.10745  -0.53888
C    -0.80494  -0.53084   1.49289
C    -0.73542  -2.01076   1.26617
C     0.06408   0.01285   2.59398
H     3.69389   0.45465   2.61371
H     4.61425   0.17909   1.10935
H     4.35790   1.84738   1.70576
H     2.22073   1.86857   0.76157
H    -1.88936   1.29495   1.42411
H    -3.73780   0.67889   0.10469
H     0.30528  -2.36350   1.18501
H    -1.16298  -2.44393   2.16770
H    -1.31103  -2.33638   0.39369
H     0.26567   1.09779   2.48757
H     1.01136  -0.52858   2.69880
H    -0.51008  -0.13304   3.51013
29

C     3.90477   0.85319   1.61082
N     2.69243   0.97138   0.82344
C     2.08253  -0.10540   0.32050
O     2.49071  -1.26555   0.40193
C     0.78690   0.15065  -0.39713
C     0.33892  -0.86495  -1.28826
N     0.03014  -1.73928  -1.99042
O     0.37678   1.39158  -0.43351
N    -0.85266   1.81720  -0.81681
C    -1.34917   1.26762  -1.91953
N    -1.91003   0.96164  -2.90387
C    -1.79530   0.29324   0.98845
C    -2.92029  -0.08319   0.12410
O    -3.02406  -1.10557  -0.53890
C    -0.78778  -0.52304   1.47382
C    -0.73333  -2.00646   1.26198
C     0.06537   0.01583   2.58961
H     3.69436   0.45479   2.61334
H     4.61429   0.17943   1.10869
H     4.35763   1.84763   1.70505
H     2.21934   1.86777   0.76254
H    -1.89019   1.29504   1.42516
H    -3.73946   0.67782   0.10683
H     0.30506  -2.36491   1.18657
H    -1.16553  -2.43900   2.16660
H    -1.30946  -2.33590   0.39214
H     0.26698   1.09861   2.48797
H     1.01109  -0.52818   2.70030
H    -0.51336  -0.13285   3.50634
29

C     3.90467   0.85359   1.60915
N     2.69074   0.97003   0.82341
C     2.07987  -0.10810   0.32449
O     2.49240  -1.26710   0.40314
C     0.77499   0.14286  -0.37884
C     0.33884  -0.86741  -1.28435
N     0.03187  -1.73762  -1.99186
O     0.37758   1.39171  -0.43529
N    -0.86452   1.80055  -0.80171
C    -1.35266   1.26624  -1.91596
N    -1.90852   0.96457  -2.90401
C    -1.78821   0.30299   0.97546
C    -2.92125  -0.08141   0.12293
O    -3.02243  -1.10369  -0.53892
C    -0.77061  -0.51525   1.45475
C    -0.73124  -2.00215   1.25779
C     0.06666   0.01881   2.58525
H     3.69483   0.45493   2.61298
H     4.61432   0.17976   1.10804
H     4.35735   1.84788   1.70433
H     2.21795   1.86697   0.76352
H    -1.89103   1.29514   1.42620
H    -3.74111   0.67676   0.10897
H     0.30484  -2.36631   1.18814
H    -1.16808  -2.43407   2.16550
H    -1.30790  -2.33541   0.39059
H     0.26829   1.09943   2.48837
H     1.01082  -0.52778   2.70181
H    -0.51664  -0.13266   3.50255
29

C     3.90456   0.85398   1.60748
N     2.68905   0.96867   0.82337
C     2.07720  -0.11081   0.32848
O     2.49409  -1.26865   0.40436
C     0.76308   0.13508  -0.36055
C     0.33877  -0.86987  -1.28044
N     0.03359  -1.73595  -1.99330
O     0.37839   1.39184  -0.43708
N    -0.87637   1.78391  -0.78662
C    -1.35615   1.26486  -1.91240
N    -1.90702   0.96751  -2.90415
C    -1.78112   0.31275   0.96246
C    -2.92221  -0.07963   0.12175
O    -3.02081  -1.10181  -0.53894
C    -0.75345  -0.50745   1.43568
C    -0.72915  -1.99784   1.25359
C     0.06796   0.02179   2.58088
H     3.69531   0.45507   2.61261
H     4.61436   0.18009   1.10738
H     4.35708   1.84813   1.70362
H     2.21656   1.86617   0.76449
H    -1.89186   1.29523   1.42725
H    -3.74277   0.67569   0.11110
H     0.30462  -2.36772   1.18971
H    -1.17063  -2.42914   2.16440
H    -1.30634  -2.33492   0.38904
H     0.26961   1.10025   2.48877
H     1.01055  -0.52738   2.70331
H    -0.51991  -0.13248   3.49876
29

C     3.90446   0.85437   1.60582
N     2.68736   0.96731   0.82334
C     2.07453  -0.11352   0.33247
O     2.49579  -1.27020   0.40557
C     0.75117   0.12729  -0.34226
C     0.33869  -0.87233  -1.27653
N     0.03532  -1.73428  -1.99474
O     0.37919   1.39196  -0.43887
N    -0.88823   1.76727  -0.77152
C    -1.35964   1.26349  -1.90884
N    -1.90551   0.97044  -2.90428
C    -1.77403   0.32250   0.94947
C    -2.92317  -0.07786   0.12058
O    -3.01918  -1.09993  -0.53897
C    -0.73629  -0.49966   1.41661
C    -0.72707  -1.99353   1.24940
C     0.06925   0.02477   2.57651
H     3.69578   0.45522   2.61225
H     4.61440   0.18043   1.10672
H     4.35681   1.84838   1.70290
H     2.21518   1.86537   0.76546
H    -1.89269   1.29532   1.42829
H    -3.74442   0.67462   0.11324
H     0.30439  -2.36912   1.19128
H    -1.17318  -2.42421   2.16330
H    -1.30477  -2.33444   0.38749
H     0.27092   1.10107   2.48917
H     1.01028  -0.52698   2.70481
H    -0.52319  -0.13229   3.49497
29

C     3.90436   0.85476   1.60415
N     2.68566   0.96596   0.82331
C     2.07187  -0.11622   0.33646
O     2.49748  -1.27175   0.40678
C     0.73926   0.11951  -0.32397
C     0.33862  -0.87479  -1.27262
N     0.03704  -1.73262  -1.99618
O     0.38000   1.39209  -0.44066
N    -0.90009   1.75062  -0.75643
C    -1.36313   1.26211  -1.90528
N    -1.90400   0.97337  -2.90442
C    -1.76694   0.33226   0.93648
C    -2.92413  -0.07608   0.11941
O    -3.01755  -1.09805  -0.53899
C    -0.71913  -0.49187   1.39754
C    -0.72498  -1.98922   1.24521
C     0.07054   0.02776   2.57214
H     3.69625   0.45536   2.61188
H     4.61444   0.18076   1.10606
H     4.35654   1.84863   1.70219
H     2.21379   1.86457   0.76643
H    -1.89353   1.29542   1.42934
H    -3.74608   0.67356   0.11538
H     0.30417  -2.37053   1.19285
H    -1.17573  -2.41928   2.16220
H    -1.30321  -2.33395   0.38593
H     0.27223   1.10189   2.48957
H     1.01001  -0.52658   2.70631
H    -0.52647  -0.13210   3.49117
29

C     3.90425   0.85515   1.60248
N     2.68397   0.96460   0.82328
C     2.06920  -0.11893   0.34045
O     2.49917  -1.27330   0.40800
C     0.72735   0.11173  -0.30568
C     0.33854  -0.87725  -1.26870
N     0.03877  -1.73095  -1.99762
O     0.38081   1.39221  -0.44245
N    -0.91194   1.73398  -0.74133
C    -1.36662   1.26073  -1.90172
N    -1.90249   0.97631  -2.90456
C    -1.75985   0.34202   0.92348
C    -2.92509  -0.07430   0.11824
O    -3.01592  -1.09617  -0.53901
C    -0.70196  -0.48407   1.37847
C    -0.72289  -1.98491   1.24102
C     0.07183   0.03074   2.56777
H     3.69673   0.45550   2.61151
H     4.61448   0.18109   1.10540
H     4.35627   1.84888   1.70147
H     2.21240   1.86377   0.76741
H    -1.89436   1.29551   1.43038
H    -3.74773   0.67249   0.11752
H     0.30395  -2.37193   1.19442
H    -1.17828  -2.41435   2.16110
H    -1.30165  -2.33346   0.38438
H     0.27354   1.10271   2.48997
H     1.00974  -0.52618   2.70781
H    -0.52975  -0.13191   3.48738
29

C     3.90415   0.85555   1.60081
N     2.68228   0.96324   0.82324
C     2.06654  -0.12164   0.34444
O     2.50087  -1.27484   0.40921
C     0.71544   0.10394  -0.28740
C     0.33847  -0.87971  -1.26479
N     0.04049  -1.72928  -1.99906
O     0.38161   1.39234  -0.44424
N    -0.92380   1.71733  -0.72623
C    -1.37011   1.25935  -1.89816
N    -1.90098   0.97924  -2.90470
C    -1.75276   0.35177   0.91049
C    -2.92605  -0.07253   0.11707
O    -3.01430  -1.09429  -0.53904
C    -0.68480  -0.47628   1.35940
C    -0.72081  -1.98061   1.23683
C     0.07313   0.03372   2.56341
H     3.69720   0.45564   2.61115
H     4.61451   0.18143   1.10474
H     4.35600   1.84913   1.70076
H     2.21101   1.86297   0.76838
H    -1.89520   1.29561   1.43143
H    -3.74939   0.67143   0.11966
H     0.30373  -2.37334   1.19599
H    -1.18083  -2.40943   2.16000
H    -1.30008  -2.33298   0.38283
H     0.27485   1.10353   2.49037
H     1.00946  -0.52578   2.70931
H    -0.53303  -0.13172   3.48359
29

C     3.90404   0.85594   1.59914
N     2.68059   0.96189   0.82321
C     2.06387  -0.12434   0.34843
O     2.50256  -1.27639   0.41042
C     0.70353   0.09616  -0.26911
C     0.33839  -0.88217  -1.26088
N     0.04222  -1.72761  -2.00050
O     0.38242   1.39247  -0.44603
N    -0.93565   1.70069  -0.71114
C    -1.37360   1.25797  -1.89459
N    -1.89947   0.98218  -2.90483
C    -1.74566   0.36153   0.89750
C    -2.92701  -0.07075   0.11590
O    -3.01267  -1.09241  -0.53906
C    -0.66764  -0.46849   1.34033
C    -0.71872  -1.97630   1.23264
C     0.07442   0.03670   2.55904
H     3.69767   0.45579   2.61078
H     4.61455   0.18176   1.10408
H     4.35573   1.84938   1.70004
H     2.20962   1.86217   0.76935
H    -1.89603   1.29570   1.43247
H    -3.75104   0.67036   0.12180
H     0.30350  -2.37474   1.19755
H    -1.18338  -2.40450   2.15890
H    -1.29852  -2.33249   0.38128
H     0.27616   1.10435   2.49077
H     1.00919  -0.52538   2.71081
H    -0.53630  -0.13153   3.47980
29

C     3.90394   0.85633   1.59748
N     2.67890   0.96053   0.82318
C     2.06120  -0.12705   0.35242
O     2.50425  -1.27794   0.41164
C     0.69162   0.08837  -0.25082
C     0.33831  -0.88463  -1.25697
N     0.04394  -1.72595  -2.00194
O     0.38322   1.39259  -0.44782
N    -0.94751   1.68405  -0.69604
C    -1.37709   1.25659  -1.89103
N    -1.89796   0.98511  -2.90497
C    -1.73857   0.37128   0.88450
C    -2.92797  -0.06897   0.11473
O    -3.01104  -1.09054  -0.53908
C    -0.65047  -0.46069   1.32126
C    -0.71663  -1.97199   1.22845
C     0.07571   0.03968   2.55467
H     3.69815   0.45593   2.61042
H     4.61459   0.18209   1.10342
H     4.35545   1.84963   1.69932
H     2.20823   1.86137   0.77032
H    -1.89687   1.29580   1.43352
H    -3.75270   0.66929   0.12394
H     0.30328  -2.37615   1.19912
H    -1.18594  -2.39957   2.15780
H    -1.29696  -2.33200   0.37973
H     0.27748   1.10517   2.49117
H     1.00892  -0.52498   2.71231
H    -0.53958  -0.13135   3.47601
29

C     3.90384   0.85672   1.59581
N     2.67720   0.95917   0.82315
C     2.05854  -0.12976   0.35641
O     2.50594  -1.27949   0.41285
C     0.67971   0.08059  -0.23253
C     0.33824  -0.88709  -1.25306
N     0.04567  -1.72428  -2.00338
O     0.38403   1.39272  -0.44961
N    -0.95936   1.66740  -0.68094
C    -1.38058   1.25521  -1.88747
N    -1.89645   0.98804  -2.90511
C    -1.73148   0.38104   0.87151
C    -2.92893  -0.06720   0.11356
O    -3.00942  -1.08866  -0.53910
C    -0.63331  -0.45290   1.30219
C    -0.71454  -1.96768   1.22426
C     0.07700   0.04266   2.55030
H     3.69862   0.45607   2.61005
H     4.61463   0.18243   1.10276
H     4.35518   1.84989   1.69861
H     2.20684   1.86057   0.77130
H    -1.89770   1.29589   1.43456
H    -3.75435   0.66823   0.12608
H     0.30306  -2.37755   1.20069
H    -1.18849  -2.39464   2.15670
H    -1.29539  -2.33152   0.37817
H     0.27879   1.10599   2.49157
H     1.00865  -0.52458   2.71382
H    -0.54286  -0.13116   3.47221
29

C     3.90373   0.85711   1.59414
N     2.67551   0.95782   0.82311
C     2.05587  -0.13246   0.36040
O     2.50764  -1.28104   0.41406
C     0.66780   0.07280  -0.21424
C     0.33816  -0.88955  -1.24915
N     0.04739  -1.72261  -2.00482
O     0.38483   1.39284  -0.45140
N    -0.97122   1.65076  -0.66585
C    -1.38407   1.25383  -1.88391
N    -1.89494   0.99098  -2.90525
C    -1.72439   0.39079   0.85852
C    -2.92989  -0.06542   0.11238
O    -3.00779  -1.08678  -0.53913
C    -0.61615  -0.44511   1.28312
C    -0.71246  -1.96337   1.22007
C     0.07830   0.04565   2.54593
H     3.69909   0.45621   2.60969
H     4.61467   0.18276   1.10210
H     4.35491   1.85014   1.69789
H     2.20545   1.85977   0.77227
H    -1.89853   1.29598   1.43561
H    -3.75601   0.66716   0.12822
H     0.30283  -2.37896   1.20226
H    -1.19104  -2.38971   2.15560
H    -1.29383  -2.33103   0.37662
H     0.28010   1.10681   2.49198
H     1.00838  -0.52418   2.71532
H    -0.54614  -0.13097   3.46842
29

C     3.90363   0.85750   1.59247
N     2.67382   0.95646   0.82308
C     2.05321  -0.13517   0.36439
O     2.50933  -1.28259   0.41528
C     0.65589   0.06502  -0.19596
C     0.33809  -0.89201  -1.24524
N     0.04912  -1.72095  -2.00626
O     0.38564   1.39297  -0.45319
N    -0.98308   1.63411  -0.65075
C    -1.38756   1.25245  -1.88035
N    -1.89343   0.99391  -2.90539
C    -1.71730   0.40055   0.84552
C    -2.93085  -0.06364   0.11121
O    -3.00616  -1.08490  -0.53915
C    -0.59898  -0.43731   1.26405
C    -0.71037  -1.95906   1.21588
C     0.07959   0.04863   2.54156
H     3.69957   0.45636   2.60932
H     4.61471   0.18309   1.10144
H     4.35464   1.85039   1.69718
H     2.20406   1.85897   0.77324
H    -1.89937   1.29608   1.43665
H    -3.75766   0.66609   0.13036
H     0.30261  -2.38037   1.20383
H    -1.19359  -2.38478   2.15450
H    -1.29227  -2.33055   0.37507
H     0.28141   1.10763   2.49238
H     1.00811  -0.52378   2.71682
H    -0.54941  -0.13078   3.46463
29

C     3.90352   0.85790   1.59081
N     2.67213   0.95510   0.82305
C     2.05054  -0.13788   0.36838
O     2.51102  -1.28414   0.41649
C     0.64398   0.05723  -0.17767
C     0.33801  -0.89447  -1.24133
N     0.05084  -1.71928  -2.00770
O     0.38645   1.39309  -0.45498
N    -0.99493   1.61747  -0.63566
C    -1.39105   1.25107  -1.87678
N    -1.89192   0.99684  -2.90552
C    -1.71021   0.41030   0.83253
C    -2.93181  -0.06186   0.11004
O    -3.00454  -1.08302  -0.53917
C    -0.58182  -0.42952   1.24498
C    -0.70828  -1.95476   1.21169
C     0.08088   0.05161   2.53720
H     3.70004   0.45650   2.60896
H     4.61474   0.18343   1.10078
H     4.35437   1.85064   1.69646
H     2.20267   1.85817   0.77422
H    -1.90020   1.29617   1.43770
H    -3.75932   0.66503   0.13250
H     0.30239  -2.38177   1.20540
H    -1.19614  -2.37985   2.15340
H    -1.29070  -2.33006   0.37352
H     0.28272   1.10845   2.49278
H     1.00784  -0.52338   2.71832
H    -0.55269  -0.13059   3.46084
29

C     3.90342   0.85829   1.58914
N     2.67044   0.95375   0.82302
C     2.04787  -0.14058   0.37237
O     2.51271  -1.28569   0.41770
C     0.63207   0.04945  -0.15938
C     0.33794  -0.89693  -1.23741
N     0.05257  -1.71761  -2.00914
O     0.38725   1.39322  -0.45677
N    -1.00679   1.60082  -0.62056
C    -1.39454   1.24970  -1.87322
N    -1.89041   0.99978  -2.90566
C    -1.70312   0.42006   0.81953
C    -2.93277  -0.06009   0.10887
O    -3.00291  -1.08114  -0.53920
C    -0.56466  -0.42172   1.22591
C    -0.70620  -1.95045   1.20750
C     0.08218   0.05459   2.53283
H     3.70051   0.45664   2.60859
H     4.61478   0.18376   1.10012
H     4.35410   1.85089   1.69575
H     2.20129   1.85737   0.77519
H    -1.90104   1.29627   1.43874
H    -3.76097   0.66396   0.13464
H     0.30217  -2.38318   1.20697
H    -1.19869  -2.37492   2.15230
H    -1.28914  -2.32957   0.37196
H     0.28403   1.10927   2.49318
H     1.00757  -0.52298   2.71982
H    -0.55597  -0.13041   3.45704
29

C     3.90352   0.85790   1.59081
N     2.67213   0.95510   0.82305
C     2.05054  -0.13788   0.36838
O     2.51102  -1.28414   0.41649
C     0.64398   0.05723  -0.17767
C     0.33801  -0.89447  -1.24133
N     0.05084  -1.71928  -2.00770
O     0.38645   1.39309  -0.45498
N    -0.99493   1.61747  -0.63566
C    -1.39105   1.25107  -1.87678
N    -1.89192   0.99684  -2.90552
C    -1.71021   0.41030   0.83253
C    -2.93181  -0.06186   0.11004
O    -3.00454  -1.08302  -0.53917
C    -0.58182  -0.42952   1.24498
C    -0.70828  -1.95476   1.21169
C     0.08088   0.05161   2.53720
H     3.70004   0.45650   2.60896
H     4.61474   0.18343   1.10078
H     4.35437   1.85064   1.69646
H     2.20267   1.85817   0.77422
H    -1.90020   1.29617   1.43770
H    -3.75932   0.66503   0.13250
H     0.30239  -2.38177   1.20540
H    -1.19614  -2.37985   2.15340
H    -1.29070  -2.33006   0.37352
H     0.28272   1.10845   2.49278
H     1.00784  -0.52338   2.71832
H    -0.55269  -0.13059   3.46084
29

C     3.90363   0.85750   1.59247
N     2.67382   0.95646   0.82308
C     2.05321  -0.13517   0.36439
O     2.50933  -1.28259   0.41528
C     0.65589   0.06502  -0.19596
C     0.33809  -0.89201  -1.24524
N     0.04912  -1.72095  -2.00626
O     0.38564   1.39297  -0.45319
N    -0.98308   1.63411  -0.65075
C    -1.38756   1.25245  -1.88035
N    -1.89343   0.99391  -2.90539
C    -1.71730   0.40055   0.84552
C    -2.93085  -0.06364   0.11121
O    -3.00616  -1.08490  -0.53915
C    -0.59898  -0.43731   1.26405
C    -0.71037  -1.95906   1.21588
C     0.07959   0.04863   2.54156
H     3.69957   0.45636   2.60932
H     4.61471   0.18309   1.10144
H     4.35464   1.85039   1.69718
H     2.20406   1.85897   0.77324
H    -1.89937   1.29608   1.43665
H    -3.75766   0.66609   0.13036
H     0.30261  -2.38037   1.20383
H    -1.19359  -2.38478   2.15450
H    -1.29227  -2.33055   0.37507
H     0.28141   1.10763   2.49238
H     1.00811  -0.52378   2.71682
H    -0.54941  -0.13078   3.46463
29

C     3.90373   0.85711   1.59414
N     2.67551   0.95782   0.82311
C     2.05587  -0.13246   0.36040
O     2.50764  -1.28104   0.41406
C     0.66780   0.07280  -0.21424
C     0.33816  -0.88955  -1.24915
N     0.04739  -1.72261  -2.00482
O     0.38483   1.39284  -0.45140
N    -0.97122   1.65076  -0.66585
C    -1.38407   1.25383  -1.88391
N    -1.89494   0.99098  -2.90525
C    -1.72439   0.39079   0.85852
C    -2.92989  -0.06542   0.11238
O    -3.00779  -1.08678  -0.53913
C    -0.61615  -0.44511   1.28312
C    -0.71246  -1.96337   1.22007
C     0.07830   0.04565   2.54593
H     3.69909   0.45621   2.60969
H     4.61467   0.18276   1.10210
H     4.35491   1.85014   1.69789
H     2.20545   1.85977   0.77227
H    -1.89853   1.29598   1.43561
H    -3.75601   0.66716   0.12822
H     0.30283  -2.37896   1.20226
H    -1.19104  -2.38971   2.15560
H    -1.29383  -2.33103   0.37662
H     0.28010   1.10681   2.49198
H     1.00838  -0.52418   2.71532
H    -0.54614  -0.13097   3.46842
29

C     3.90384   0.85672   1.59581
N     2.67720   0.95917   0.82315
C     2.05854  -0.12976   0.35641
O     2.50594  -1.27949   0.41285
C     0.67971   0.08059  -0.23253
C     0.33824  -0.88709  -1.25306
N     0.04567  -1.72428  -2.00338
O     0.38403   1.39272  -0.44961
N    -0.95936   1.66740  -0.68094
C    -1.38058   1.25521  -1.88747
N    -1.89645   0.98804  -2.90511
C    -1.73148   0.38104   0.87151
C    -2.92893  -0.06720   0.11356
O    -3.00942  -1.08866  -0.53910
C    -0.63331  -0.45290   1.30219
C    -0.71454  -1.96768   1.22426
C     0.07700   0.04266   2.55030
H     3.69862   0.45607   2.61005
H     4.61463   0.18243   1.10276
H     4.35518   1.84989   1.69861
H     2.20684   1.86057   0.77130
H    -1.89770   1.29589   1.43456
H    -3.75435   0.66823   0.12608
H     0.30306  -2.37755   1.20069
H    -1.18849  -2.39464   2.15670
H    -1.29539  -2.33152   0.37817
H     0.27879   1.10599   2.49157
H     1.00865  -0.52458   2.71382
H    -0.54286  -0.13116   3.47221
29

C     3.90394   0.85633   1.59748
N     2.67890   0.96053   0.82318
C     2.06120  -0.12705   0.35242
O     2.50425  -1.27794   0.41164
C     0.69162   0.08837  -0.25082
C     0.33831  -0.88463  -1.25697
N     0.04394  -1.72595  -2.00194
O     0.38322   1.39259  -0.44782
N    -0.94751   1.68405  -0.69604
C    -1.37709   1.25659  -1.89103
N    -1.89796   0.98511  -2.90497
C    -1.73857   0.37128   0.88450
C    -2.92797  -0.06897   0.11473
O    -3.01104  -1.09054  -0.53908
C    -0.65047  -0.46069   1.32126
C    -0.71663  -1.97199   1.22845
C     0.07571   0.03968   2.55467
H     3.69815   0.45593   2.61042
H     4.61459   0.18209   1.10342
H     4.35545   1.84963   1.69932
H     2.20823   1.86137   0.77032
H    -1.89687   1.29580   1.43352
H    -3.75270   0.66929   0.12394
H     0.30328  -2.37615   1.19912
H    -1.18594  -2.39957   2.15780
H    -1.29696  -2.33200   0.37973
H     0.27748   1.10517   2.49117
H     1.00892  -0.52498   2.71231
H    -0.53958  -0.13135   3.47601
29

C     3.90404   0.85594   1.59914
N     2.68059   0.96189   0.82321
C     2.06387  -0.12434   0.34843
O     2.50256  -1.27639   0.41042
C     0.70353   0.09616  -0.26911
C     0.33839  -0.88217  -1.26088
N     0.04222  -1.72761  -2.00050
O     0.38242   1.39247  -0.44603
N    -0.93565   1.70069  -0.71114
C    -1.37360   1.25797  -1.89459
N    -1.89947   0.98218  -2.90483
C    -1.74566   0.36153   0.89750
C    -2.92701  -0.07075   0.11590
O    -3.01267  -1.09241  -0.53906
C    -0.66764  -0.46849   1.34033
C    -0.71872  -1.97630   1.23264
C     0.07442   0.03670   2.55904
H     3.69767   0.45579   2.61078
H     4.61455   0.18176   1.10408
H     4.35573   1.84938   1.70004
H     2.20962   1.86217   0.76935
H    -1.89603   1.29570   1.43247
H    -3.75104   0.67036   0.12180
H     0.30350  -2.37474   1.19755
H    -1.18338  -2.40450   2.15890
H    -1.29852  -2.33249   0.38128
H     0.27616   1.10435   2.49077
H     1.00919  -0.52538   2.71081
H    -0.53630  -0.13153   3.47980
29

C     3.90415   0.85555   1.60081
N     2.68228   0.96324   0.82324
C     2.06654  -0.12164   0.34444
O     2.50087  -1.27484   0.40921
C     0.71544   0.10394  -0.28740
C     0.33847  -0.87971  -1.26479
N     0.04049  -1.72928  -1.99906
O     0.38161   1.39234  -0.44424
N    -0.92380   1.71733  -0.72623
C    -1.37011   1.25935  -1.89816
N    -1.90098   0.97924  -2.90470
C    -1.75276   0.35177   0.91049
C    -2.92605  -0.07253   0.11707
O    -3.01430  -1.09429  -0.53904
C    -0.68480  -0.47628   1.35940
C    -0.72081  -1.98061   1.23683
C     0.07313   0.03372   2.56341
H     3.69720   0.45564   2.61115
H     4.61451   0.18143   1.10474
H     4.35600   1.84913   1.70076
H     2.21101   1.86297   0.76838
H    -1.89520   1.29561   1.43143
H    -3.74939   0.67143   0.11966
H     0.30373  -2.37334   1.19599
H    -1.18083  -2.40943   2.16000
H    -1.30008  -2.33298   0.38283
H     0.27485   1.10353   2.49037
H     1.00946  -0.52578   2.70931
H    -0.53303  -0.13172   3.48359
29

C     3.90425   0.85515   1.60248
N     2.68397   0.96460   0.82328
C     2.06920  -0.11893   0.34045
O     2.49917  -1.27330   0.40800
C     0.72735   0.11173  -0.30568
C     0.33854  -0.87725  -1.26870
N     0.03877  -1.73095  -1.99762
O     0.38081   1.39221  -0.44245
N    -0.91194   1.73398  -0.74133
C    -1.36662   1.26073  -1.90172
N    -1.90249   0.97631  -2.90456
C    -1.75985   0.34202   0.92348
C    -2.92509  -0.07430   0.11824
O    -3.01592  -1.09617  -0.53901
C    -0.70196  -0.48407   1.37847
C    -0.72289  -1.98491   1.24102
C     0.07183   0.03074   2.56777
H     3.69673   0.45550   2.61151
H     4.61448   0.18109   1.10540
H     4.35627   1.84888   1.70147
H     2.21240   1.86377   0.76741
H    -1.89436   1.29551   1.43038
H    -3.74773   0.67249   0.11752
H     0.30395  -2.37193   1.19442
H    -1.17828  -2.41435   2.16110
H    -1.30165  -2.33346   0.38438
H     0.27354   1.10271   2.48997
H     1.00974  -0.52618   2.70781
H    -0.52975  -0.13191   3.48738
29

C     3.90436   0.85476   1.60415
N     2.68566   0.96596   0.82331
C     2.07187  -0.11622   0.33646
O     2.49748  -1.27175   0.40678
C     0.73926   0.11951  -0.32397
C     0.33862  -0.87479  -1.27262
N     0.03704  -1.73262  -1.99618
O     0.38000   1.39209  -0.44066
N    -0.90009   1.75062  -0.75643
C    -1.36313   1.26211  -1.90528
N    -1.90400   0.97337  -2.90442
C    -1.76694   0.33226   0.93648
C    -2.92413  -0.07608   0.11941
O    -3.01755  -1.09805  -0.53899
C    -0.71913  -0.49187   1.39754
C    -0.72498  -1.98922   1.24521
C     0.07054   0.02776   2.57214
H     3.69625   0.45536   2.61188
H     4.61444   0.18076   1.10606
H     4.35654   1.84863   1.70219
H     2.21379   1.86457   0.76643
H    -1.89353   1.29542   1.42934
H    -3.74608   0.67356   0.11538
H     0.30417  -2.37053   1.19285
H    -1.17573  -2.41928   2.16220
H    -1.30321  -2.33395   0.38593
H     0.27223   1.10189   2.48957
H     1.01001  -0.52658   2.70631
H    -0.52647  -0.13210   3.49117
29

C     3.90446   0.85437   1.60582
N     2.68736   0.96731   0.82334
C     2.07453  -0.11352   0.33247
O     2.49579  -1.27020   0.40557
C     0.75117   0.12729  -0.34226
C     0.33869  -0.87233  -1.27653
N     0.03532  -1.73428  -1.99474
O     0.37919   1.39196  -0.43887
N    -0.88823   1.76727  -0.77152
C    -1.35964   1.26349  -1.90884
N    -1.90551   0.97044  -2.90428
C    -1.77403   0.32250   0.94947
C    -2.92317  -0.07786   0.12058
O    -3.01918  -1.09993  -0.53897
C    -0.73629  -0.49966   1.41661
C    -0.72707  -1.99353   1.24940
C     0.06925   0.02477   2.57651
H     3.69578   0.45522   2.61225
H     4.61440   0.18043   1.10672
H     4.35681   1.84838   1.70290
H     2.21518   1.86537   0.76546
H    -1.89269   1.29532   1.42829
H    -3.74442   0.67462   0.11324
H     0.30439  -2.36912   1.19128
H    -1.17318  -2.42421   2.16330
H    -1.30477  -2.33444   0.38749
H     0.27092   1.10107   2.48917
H     1.01028  -0.52698   2.70481
H    -0.52319  -0.13229   3.49497
29

C     3.90456   0.85398   1.60748
N     2.68905   0.96867   0.82337
C     2.07720  -0.11081   0.32848
O     2.49409  -1.26865   0.40436
C     0.76308   0.13508  -0.36055
C     0.33877  -0.86987  -1.28044
N     0.03359  -1.73595  -1.99330
O     0.37839   1.39184  -0.43708
N    -0.87637   1.78391  -0.78662
C    -1.35615   1.26486  -1.91240
N    -1.90702   0.96751  -2.90415
C    -1.78112   0.31275   0.96246
C    -2.92221  -0.07963   0.12175
O    -3.02081  -1.10181  -0.53894
C    -0.75345  -0.50745   1.43568
C    -0.72915  -1.99784   1.25359
C     0.06796   0.02179   2.58088
H     3.69531   0.45507   2.61261
H     4.61436   0.18009   1.10738
H     4.35708   1.84813   1.70362
H     2.21656   1.86617   0.76449
H    -1.89186   1.29523   1.42725
H    -3.74277   0.67569   0.11110
H     0.30462  -2.36772   1.18971
H    -1.17063  -2.42914   2.16440
H    -1.30634  -2.33492   0.38904
H     0.26961   1.10025   2.48877
H     1.01055  -0.52738   2.70331
H    -0.51991  -0.13248   3.49876
29

C     3.90467   0.85359   1.60915
N     2.69074   0.97003   0.82341
C     2.07987  -0.10810   0.32449
O     2.49240  -1.26710   0.40314
C     0.77499   0.14286  -0.37884
C     0.33884  -0.86741  -1.28435
N     0.03187  -1.73762  -1.99186
O     0.37758   1.39171  -0.43529
N    -0.86452   1.80055  -0.80171
C    -1.35266   1.26624  -1.91596
N    -1.90852   0.96457  -2.90401
C    -1.78821   0.30299   0.97546
C    -2.92125  -0.08141   0.12293
O    -3.02243  -1.10369  -0.53892
C    -0.77061  -0.51525   1.45475
C    -0.73124  -2.00215   1.25779
C     0.06666   0.01881   2.58525
H     3.69483   0.45493   2.61298
H     4.61432   0.17976   1.10804
H     4.35735   1.84788   1.70433
H     2.21795   1.86697   0.76352
H    -1.89103   1.29514   1.42620
H    -3.74111   0.67676   0.10897
H     0.30484  -2.36631   1.18814
H    -1.16808  -2.43407   2.16550
H    -1.30790  -2.33541   0.39059
H     0.26829   1.09943   2.48837
H     1.01082  -0.52778   2.70181
H    -0.51664  -0.13266   3.50255
29

C     3.90477   0.85319   1.61082
N     2.69243   0.97138   0.82344
C     2.08253  -0.10540   0.32050
O     2.49071  -1.26555   0.40193
C     0.78690   0.15065  -0.39713
C     0.33892  -0.86495  -1.28826
N     0.03014  -1.73928  -1.99042
O     0.37678   1.39158  -0.43351
N    -0.85266   1.81720  -0.81681
C    -1.34917   1.26762  -1.91953
N    -1.91003   0.96164  -2.90387
C    -1.79530   0.29324   0.98845
C    -2.92029  -0.08319   0.12410
O    -3.02406  -1.10557  -0.53890
C    -0.78778  -0.52304   1.47382
C    -0.73333  -2.00646   1.26198
C     0.06537   0.01583   2.58961
H     3.69436   0.45479   2.61334
H     4.61429   0.17943   1.10869
H     4.35763   1.84763   1.70505
H     2.21934   1.86777   0.76254
H    -1.89019   1.29504   1.42516
H    -3.73946   0.67782   0.10683
H     0.30506  -2.36491   1.18657
H    -1.16553  -2.43900   2.16660
H    -1.30946  -2.33590   0.39214
H     0.26698   1.09861   2.48797
H     1.01109  -0.52818   2.70030
H    -0.51336  -0.13285   3.50634
29

C     3.90488   0.85280   1.61249
N     2.69413   0.97274   0.82347
C     2.08520  -0.10269   0.31651
O     2.48902  -1.26400   0.40072
C     0.79881   0.15843  -0.41541
C     0.33899  -0.86249  -1.29217
N     0.02842  -1.74095  -1.98898
O     0.37597   1.39146  -0.43172
N    -0.84081   1.83384  -0.83191
C    -1.34568   1.26900  -1.92309
N    -1.91154   0.95871  -2.90373
C    -1.80239   0.28348   1.00144
C    -2.91933  -0.08497   0.12527
O    -3.02569  -1.10745  -0.53888
C    -0.80494  -0.53084   1.49289
C    -0.73542  -2.01076   1.26617
C     0.06408   0.01285   2.59398
H     3.69389   0.45465   2.61371
H     4.61425   0.17909   1.10935
H     4.35790   1.84738   1.70576
H     2.22073   1.86857   0.76157
H    -1.88936   1.29495   1.42411
H    -3.73780   0.67889   0.10469
H     0.30528  -2.36350   1.18501
H    -1.16298  -2.44393   2.16770
H    -1.31103  -2.33638   0.39369
H     0.26567   1.09779   2.48757
H     1.01136  -0.52858   2.69880
H    -0.51008  -0.13304   3.51013
29

C     3.90498   0.85241   1.61415
N     2.69582   0.97410   0.82350
C     2.08787  -0.09998   0.31253
O     2.48732  -1.26245   0.39951
C     0.81072   0.16622  -0.43370
C     0.33907  -0.86003  -1.29608
N     0.02669  -1.74262  -1.98754
O     0.37516   1.39133  -0.42993
N    -0.82895   1.85049  -0.84700
C    -1.34219   1.27038  -1.92665
N    -1.91305   0.95577  -2.90360
C    -1.80949   0.27373   1.01444
C    -2.91837  -0.08674   0.12644
O    -3.02731  -1.10933  -0.53885
C    -0.82210  -0.53863   1.51196
C    -0.73750  -2.01507   1.27036
C     0.06279   0.00987   2.59835
H     3.69341   0.45450   2.61407
H     4.61421   0.17876   1.11001
H     4.35817   1.84713   1.70648
H     2.22212   1.86937   0.76060
H    -1.88852   1.29485   1.42307
H    -3.73615   0.67996   0.10255
H     0.30551  -2.36210   1.18344
H    -1.16043  -2.44886   2.16880
H    -1.31259  -2.33687   0.39525
H     0.26436   1.09697   2.48717
H     1.01164  -0.52898   2.69730
H    -0.50680  -0.13323   3.51393
29

C     3.90508   0.85202   1.61582
N     2.69751   0.97545   0.82354
C     2.09053  -0.09728   0.30854
O     2.48563  -1.26091   0.39829
C     0.82263   0.17400  -0.45199
C     0.33914  -0.85757  -1.29999
N     0.02497  -1.74428  -1.98610
O     0.37436   1.39121  -0.42814
N    -0.81709   1.86713  -0.86210
C    -1.33870   1.27176  -1.93021
N    -1.91456   0.95284  -2.90346
C    -1.81658   0.26397   1.02743
C    -2.91742  -0.08852   0.12761
O    -3.02894  -1.11121  -0.53883
C    -0.83927  -0.54642   1.53103
C    -0.73959  -2.01938   1.27455
C     0.06149   0.00688   2.60272
H     3.69294   0.45436   2.61444
H     4.61417   0.17843   1.11067
H     4.35844   1.84688   1.70719
H     2.22351   1.87017   0.75963
H    -1.88769   1.29476   1.42202
H    -3.73449   0.68102   0.10041
H     0.30573  -2.36069   1.18187
H    -1.15788  -2.45379   2.16989
H    -1.31415  -2.33735   0.39680
H     0.26305   1.09615   2.48677
H     1.01191  -0.52938   2.69580
H    -0.50352  -0.13342   3.51772
29

C     3.90519   0.85163   1.61749
N     2.69920   0.97681   0.82357
C     2.09320  -0.09457   0.30455
O     2.48394  -1.25936   0.39708
C     0.83454   0.18178  -0.47028
C     0.33922  -0.85511  -1.30391
N     0.02324  -1.74595  -1.98466
O     0.37355   1.39108  -0.42635
N    -0.80524   1.88377  -0.87720
C    -1.33521   1.27314  -1.93377
N    -1.91607   0.94991  -2.90332
C    -1.82367   0.25422   1.04043
C    -2.91646  -0.09030   0.12878
O    -3.03057  -1.11309  -0.53881
C    -0.85643  -0.55422   1.55010
C    -0.74168  -2.02369   1.27874
C     0.06020   0.00390   2.60709
H     3.69247   0.45422   2.61480
H     4.61413   0.17810   1.11133
H     4.35871   1.84663   1.70791
H     2.22490   1.87097   0.75865
H    -1.88685   1.29467   1.42098
H    -3.73283   0.68209   0.09827
H     0.30595  -2.35929   1.18030
H    -1.15533  -2.45872   2.17099
H    -1.31571  -2.33784   0.39835
H     0.26174   1.09533   2.48637
H     1.01218  -0.52978   2.69430
H    -0.50025  -0.13360   3.52151
29

C     3.90529   0.85124   1.61916
N     2.70089   0.97817   0.82360
C     2.09586  -0.09186   0.30056
O     2.48224  -1.25781   0.39587
C     0.84645   0.18957  -0.48857
C     0.33929  -0.85265  -1.30782
N     0.02152  -1.74762  -1.98322
O     0.37275   1.39095  -0.42456
N    -0.79338   1.90042  -0.89229
C    -1.33172   1.27452  -1.93734
N    -1.91758   0.94697  -2.90318
C    -1.83076   0.24446   1.05342
C    -2.91550  -0.09207   0.12995
O    -3.03219  -1.11497  -0.53878
C    -0.87359  -0.56201   1.56917
C    -0.74376  -2.02800   1.28293
C     0.05891   0.00092   2.61146
H     3.69199   0.45408   2.61517
H     4.61410   0.17776   1.11199
H     4.35898   1.84638   1.70863
H     2.22629   1.87177   0.75768
H    -1.88602   1.29457   1.41993
H    -3.73118   0.68316   0.09613
H     0.30617  -2.35788   1.17873
H    -1.15278  -2.46365   2.17209
H    -1.31728  -2.33833   0.39990
H     0.26043   1.09451   2.48597
H     1.01245  -0.53018   2.69280
H    -0.49697  -0.13379   3.52530
29

C     3.90540   0.85084   1.62082
N     2.70259   0.97953   0.82363
C     2.09853  -0.08916   0.29657
O     2.48055  -1.25626   0.39465
C     0.85836   0.19735  -0.50685
C     0.33937  -0.85019  -1.31173
N     0.01979  -1.74928  -1.98178
O     0.37194   1.39083  -0.42277
N    -0.78153   1.91706  -0.90739
C    -1.32823   1.27590  -1.94090
N    -1.91909   0.94404  -2.90304
C    -1.83785   0.23470   1.06641
C    -2.91454  -0.09385   0.13112
O    -3.03382  -1.11685  -0.53876
C    -0.89076  -0.56980   1.58824
C    -0.74585  -2.03231   1.28712
C     0.05761  -0.00206   2.61582
H     3.69152   0.45393   2.61553
H     4.61406   0.17743   1.11265
H     4.35925   1.84613   1.70934
H     2.22768   1.87257   0.75671
H    -1.88519   1.29448   1.41889
H    -3.72952   0.68422   0.09399
H     0.30640  -2.35648   1.17716
H    -1.15023  -2.46858   2.17319
H    -1.31884  -2.33881   0.40146
H     0.25911   1.09369   2.48557
H     1.01272  -0.53058   2.69130
H    -0.49369  -0.13398   3.52910
