12

C -3.101356665 -1.474466009 0.675913574
C -0.832404440 0.166818408 0.418235206
C 1.153646260 -0.026868504 -1.550874193
N 3.652852315 0.260898593 -0.816041547
N 4.370098206 1.719644896 0.836943317
C 0.135057195 2.210377329 1.271280747
H -4.117660691 -1.561545099 -1.117535861
H -2.521494128 -3.396529845 1.154890531
H -4.379898439 -0.766092590 2.125086260
H 0.738639386 -0.200904778 -3.549952154
H 4.869086077 -1.030608535 -1.614975631
H 0.025282646 4.024720748 2.166232306

