13

C 4.278582417 -0.461154420 -0.997918276
O 2.149087955 0.069091656 0.540415298
C 0.005813232 -1.079619300 -0.264416545
C -3.920127733 1.755256710 1.677128629
O -4.751835563 -0.740055244 0.861205132
C -2.399258781 0.088917170 0.169540823
O -1.434527856 0.178421837 -2.245869107
H 4.594520512 -2.501884875 -1.144347352
H 5.902889477 0.413844390 -0.092674739
H 4.032798099 0.331801855 -2.889355963
H 0.144844635 -3.113357824 -0.563992088
H -4.887457276 3.310956375 0.756706282
H -3.584599735 1.942992288 3.690687788

