12

O 2.612777311 1.986171699 -3.021838275
C 2.631833536 2.183234286 -0.380010450
C -4.991668189 -2.123253887 0.026096267
C -3.040713936 -1.014776409 1.037600314
N -1.310611182 0.035104667 2.121506892
C 1.065906521 0.534688634 1.236885785
C 3.481028155 0.095837706 1.291362640
H 2.491182127 0.229804454 -3.465432491
H 2.958519883 4.154934329 0.096892230
H -6.301831922 -1.044378912 -1.109618721
H -5.295845347 -4.122947427 0.307090851
H 5.041679280 -1.010490945 1.983659648

