12

O 1.252953824 0.557592795 -3.177853251
C 0.614876120 1.204951568 -0.832724390
C -3.543120965 -0.589977013 -0.339192517
C -2.183045937 -2.015757289 1.269110472
N -0.323549874 -2.603897318 2.406902893
C 1.634446556 -0.131459705 1.346572916
C 3.664443668 0.816377427 2.044784068
H 1.777899011 -1.185808132 -3.205924188
H 0.088976129 3.174917202 -0.688663443
H -4.860844339 0.773706523 0.432249283
H -3.945220140 -1.308484182 -2.212981560
H 5.388796156 1.172811560 3.032397932

