9

C -1.972256719 -0.385152206 0.038594387
C 1.262969694 1.223405613 0.056662191
O 1.138628323 3.433041149 0.242205763
N 2.689498094 -0.763519029 -0.156648375
H -2.684539981 0.324483928 1.827827560
H -2.538458105 -2.388936568 -0.097911151
H -2.801136896 0.588216770 -1.566913943
H 4.592543726 -0.508862030 -0.205029143
H 0.288022929 -1.527122263 -0.133760617

