15

C 5.458076275 -2.051425416 -2.717700272
C 3.512172977 -0.436223320 -1.622269652
C 1.907677332 0.880671636 -0.714017596
C -0.108758576 2.457832052 0.362628636
C -2.672769123 1.315871877 0.094682781
C -5.804965192 -0.849263783 2.382014161
O -3.699243523 0.377501687 2.089039451
H 7.203154012 -1.944591016 -1.624622796
H 4.842619839 -4.019412016 -2.745409062
H 5.881450950 -1.485993489 -4.654926080
H -0.055050670 4.314432808 -0.550060195
H 0.256889445 2.778713084 2.369540551
H -3.590979564 1.011262709 -1.711679625
H -6.241737062 -1.362116594 4.298611983
H -6.991054761 -1.215652501 0.759527095

