13

C -2.594909969 1.076588330 1.635667470
C -1.795121351 -0.809404659 -0.078444969
C -0.217753425 1.432588487 -1.542444767
N 2.132610582 -0.042713291 -1.288829537
C 2.638696605 -0.403339270 1.408734531
C 0.799013093 -2.055187445 0.164396970
H -0.141431903 3.344875882 -0.773387915
H -4.328282630 1.909292368 0.823794508
H -3.070081168 -1.749278315 -1.398623060
H -0.900851568 1.474013155 -3.478142543
H 1.958419502 0.997998608 2.738678197
H 4.505825234 -1.163360434 1.751279044
H 1.141514237 -4.032992684 -0.232600738

