13

C -2.294347744 1.415362745 1.252750849
C -1.753529311 -0.905713720 -0.209755820
C -0.416382103 1.165908107 -1.615719162
N 2.106520117 -0.053406986 -1.312582979
C 2.649200497 -0.382032986 1.393473840
C 0.863640215 -2.114296944 0.178745169
H -0.587459708 2.874414919 -0.019230288
H -4.014613699 2.226677672 0.410997121
H -3.245718456 -1.965761409 -1.119190467
H -0.977807414 1.862644214 -3.451739271
H 1.959096138 1.000058296 2.734217574
H 4.552087392 -1.066325171 1.697708653
H 1.286963168 -4.078449913 -0.209594230

