8

N -1.911559737 1.809289762 0.059554870
C -0.970749759 -0.788867777 0.393349479
N 1.378541734 -1.175248286 0.430893612
C 3.644914388 -1.414748962 0.749791982
N -2.089781773 3.339082756 1.737586353
H -2.437797667 2.197880721 -1.791149676
H -2.333552720 -2.268419757 0.740970760
H 4.780573913 -1.901265529 -0.902948767

