15

C -1.825299352 1.588609510 -1.600967960
N -1.314854694 -0.854353137 -1.242572217
C -2.246356070 -2.001364284 1.060247755
C 1.820712306 0.511454716 -1.418016374
O 2.853391943 0.198203131 -3.415924841
C 2.868581656 0.025064855 1.194741586
H -2.979146716 2.667393967 -0.259322675
H 0.771236254 2.690173217 -1.091513331
H -1.766266500 2.312439490 -3.524615462
H -4.029303182 -2.965037699 0.663019104
H -2.583269899 -0.650398889 2.603565519
H -0.922818273 -3.436810982 1.721201502
H 3.285505506 -1.983442122 1.390288177
H 1.598140911 0.633518627 2.689490591
H 4.631928056 1.079220360 1.325422402

