11

C 1.078393019 -0.706118314 3.064801973
H 0.927566607 -1.930618381 4.694923399
C -0.419163610 1.262101176 2.532741022
H -2.000870272 1.925654108 3.641972954
C 0.426959732 2.453183552 0.109725152
H 0.959637206 4.437727006 0.371338024
H -1.067706674 2.437683187 -1.323885337
C 2.636285957 0.856552381 -0.650168475
H 3.740716926 1.163066015 -2.341018745
C 2.987390665 -0.960804036 1.073916258
H 4.438250933 -2.400367842 1.028795286

