15

C -2.564141599 -1.070546460 -1.342942299
O -2.868845632 -3.398811481 -0.584946410
C 0.297396235 -1.600273335 1.783438101
C 2.664482221 -1.297022766 0.602475113
C 2.689136173 0.962479845 -0.625240852
C 0.420526102 2.502262140 0.009625377
C -1.335704742 0.487447484 1.055161557
H -0.954581716 -0.713772517 -2.698309169
H -4.250960668 -0.142612812 -2.182141344
H -0.206539941 -3.109461738 3.053178910
H 4.146358809 -2.700210101 0.561357677
H 4.209862394 1.622564412 -1.826514389
H 0.919196141 3.910208579 1.445717700
H -0.354309230 3.521136949 -1.609445706
H -2.814525832 1.031840693 2.370889740

