9

O 3.721945105 0.232924203 -0.873346547
C 1.292327458 -0.383441267 -0.341225975
C -0.783651831 1.264430055 0.094642605
N -2.980381671 0.274592059 0.353258693
N -1.573237420 -3.612519645 -0.240339242
N 0.398063079 -2.731833987 -0.466524153
H 4.724241007 0.178395456 0.638359047
H -0.385935478 3.280921238 0.179009712
H -4.416053643 1.498208074 0.656948207

