12

C -4.848439799 0.544306697 0.125611702
C -2.150523655 0.074502415 0.416528500
C 0.069686410 -0.304266863 0.631990500
C 2.771469689 -0.752748440 0.863983559
C 4.341996637 0.054619737 -1.389597482
O 3.546854799 0.986990235 -3.286387630
H -5.949946379 -0.706839698 1.338612558
H -5.428943765 0.225098998 -1.826574218
H -5.308149448 2.491783306 0.621628508
H 3.166647685 -2.762398569 1.177876989
H 3.550511154 0.217996009 2.519892661
H 6.395381604 -0.301542521 -1.140787467

