10

N 3.480452185 -0.437515043 0.908878255
C 1.144479463 -0.850124308 -0.153889280
N 0.131212170 -2.677386291 -1.154840075
N -4.250601129 -0.748757546 -0.275004889
N -2.995389006 1.198755194 0.084592343
C -0.612801370 1.419543349 -0.385991792
H 3.998572362 1.381343915 1.104276031
H 4.859758238 -1.634186076 0.377888098
H -5.837339017 -0.679043017 0.840539976
H 0.063720715 3.106995343 -1.334496149

