15

C -2.088936215 -2.141563935 1.768600935
C -1.688749669 -0.487920728 -0.210530079
C -2.454434778 2.243363387 -0.072922245
C 2.438141880 -0.111241147 0.133339888
O 2.765175880 -1.517853894 2.048348942
N 4.508282728 0.940293553 -0.802893664
H -2.883626049 -1.429500183 3.521387017
H 0.821585494 -2.120051330 2.415171900
H -2.342567659 -4.139243310 1.390669789
H -1.564396676 -1.253811835 -2.107301008
H -1.412342547 3.413216259 -1.410423455
H -4.469634730 2.411938541 -0.505856969
H -2.161257319 3.001523209 1.822272369
H 4.381957201 2.071033328 -2.316213198
H 6.236968244 0.639679474 -0.046937792

