10

C 2.888066830 -1.904854119 0.372526038
C 1.148029162 -3.451668727 1.985385856
C -1.292452974 -3.013047080 2.367508132
O -2.697995115 -1.100438961 1.395383370
H -1.645133732 -0.026820392 0.379021991
H -2.436233502 -4.222729464 3.557389871
H 1.942003036 -5.074118867 2.947546867
H 4.058010220 -3.116912871 -0.817838242
H 1.883792271 -0.624246270 -0.900941481
H 4.166003532 -0.753454215 1.517324109

