16

C 2.845671183 -1.966353517 -0.125844554
C 0.821744986 -0.908024930 1.554788421
C 0.028094520 2.668901156 0.300433478
C -2.127466502 2.676866900 -1.268896498
C -1.730195464 -0.901909115 0.759026847
O -2.682350885 -2.449252053 -0.979217905
H 2.937473134 -4.038383052 -0.179412696
H 2.615173540 -1.317264776 -2.084750849
H 4.709382299 -1.317646538 0.481514292
H 1.097131014 -0.993541084 3.583734732
H -0.083506374 3.549759478 2.147060128
H 1.891160030 2.795268106 -0.548793039
H -3.923135969 3.360036588 -0.579562883
H -1.932985093 2.389978638 -3.281131470
H -3.154188740 -0.291407145 2.089521142
H -1.313481393 -3.255530122 -1.869419713

