10

O 0.926665226 1.487907498 2.125147941
C -0.947285389 1.053104496 0.474718648
C -3.417315717 1.154407630 0.300946803
C 2.482497966 -2.122466041 -0.447245583
O 3.697775792 -2.973731460 -2.155130449
C 1.576986221 0.551017587 -0.396855676
H -4.328751527 0.589074631 -1.434294211
H -4.548501429 1.807394499 1.871678050
H 1.909902806 -3.258919081 1.215642032
H 2.552610018 1.885365865 -1.610225993

