10

O 0.218693601 3.402212950 2.061517517
C -0.474491616 1.721824280 0.579855205
C -2.672185387 0.374572234 0.224596388
C 1.655830527 -2.044174820 -0.076147913
O 1.421494907 -2.000365942 -2.428464196
C 1.870113167 0.565589738 -0.503182043
H -2.837108985 -0.968335143 -1.300663210
H -4.378786184 0.971609207 1.179643751
H 1.582737848 -3.565359262 1.291436623
H 3.570697606 1.566978080 -1.023210163

