11

O 0.318104931 3.780270198 1.508032703
C 0.678169850 1.640143759 0.130605473
C 1.875210855 -2.271264626 0.060988926
O 0.731789431 -2.302431936 -2.031185259
C -1.416287596 0.228218218 -0.581118921
N -3.544920381 -0.382184315 0.076972759
H -1.113890182 3.552569633 2.604044697
H 2.296722563 1.764850320 -1.091896888
H 3.933962984 -2.054389111 0.121874731
H 0.985728409 -3.038317537 1.769582421
H -4.813885231 -0.951113086 -1.230420484

