18

C 4.087177538 0.327933925 -0.050676181
C 1.737513334 -1.316194680 0.106255747
C -0.741670299 0.152879656 0.111207510
C -2.928006305 -1.265312822 1.079410542
C -1.225779808 1.855053808 -1.892381133
C -1.226298349 1.278585823 2.816830750
N -1.057987643 2.398110508 4.686552990
H 4.157266403 1.401291089 -1.808510174
H 5.782966664 -0.840346430 0.027216497
H 4.158582616 1.660400773 1.522889069
H 1.813875069 -2.475750246 1.812922931
H 1.625983304 -2.614607000 -1.499565124
H -2.641790956 -2.908595662 2.263528333
H -4.785056835 -0.414625414 1.021579348
H -3.441869193 -2.052995438 -2.394252689
H -3.029404511 2.821808667 -1.958933149
H 0.332965794 2.816524407 -2.800912415
H -2.734911765 -0.904283480 -3.199872113

