11

O 3.720952319 -0.593654004 -0.209367916
C 1.189918003 -0.832766379 0.565603174
C -0.648509427 -1.831361291 -1.387152668
N -2.661426666 -0.527388697 -1.575516260
C -2.380535866 1.550168097 0.141995835
C -0.189165194 1.518848060 1.372972182
H 3.795277496 0.652761765 -1.525667061
H -0.330496848 -3.528681926 -2.494726101
H 1.203192403 -2.179923788 2.144842080
H -3.905207192 2.900764977 0.289930664
H 0.486035688 2.841521024 2.770988470

