17

C 3.477293848 -0.953661722 -0.417457376
C 1.736726433 0.892449070 0.327592357
C -0.405270495 2.424055994 -1.434451322
C -2.680902429 1.813371646 0.183278225
O -4.210502463 -0.114991800 -0.874178386
C -2.322140740 -1.979797634 -0.244133548
C -0.772469225 -0.064008180 1.264483648
H 2.899648564 -2.530475940 -1.589254455
H 2.308472218 -2.572784904 2.570518575
H 5.487154171 -0.628793367 -0.249230895
H 2.532810772 2.333291258 1.559498393
H 0.200635492 4.380776689 -1.406442066
H -0.507591530 1.646138443 -3.326649624
H -3.696700367 3.311738363 1.149244672
H -1.425093285 -2.801377023 -1.919789777
H -3.135707086 -3.484673002 0.906077700
H 0.941980361 -2.202350320 3.253776305

