20

C -2.244948961 3.286964469 1.155237541
C -1.298774505 0.627624117 1.427330475
N -1.393917850 -1.039291637 -0.780219899
C -2.384897902 -3.588929249 -0.600644139
C 0.957837563 -0.518880527 0.284307595
C 2.980087365 -2.060920874 1.138369147
C 2.476896308 2.171098105 -2.185310112
H -4.260218739 3.359559753 1.589639638
H -1.264191421 4.543329702 2.465533914
H -1.973977069 3.977174596 -0.761459227
H -1.726334716 -0.262659516 3.238732120
H -1.698621825 -4.693833349 -2.199304762
H -1.827280144 -4.539920277 1.151283422
H -4.439990482 -3.500483943 -0.712310039
H 3.243107686 0.066867071 -0.646814664
H 3.746321741 -1.732341286 3.001637310
H 3.278257782 -3.865805760 0.226404534
H 1.123940407 2.060961730 -3.722447262
H 4.395572205 1.846636023 -2.915318003
H 2.427484883 3.972031631 -1.196474823

