12

C 2.066136329 -0.038873764 2.346123783
C 1.173360695 -0.897474533 -0.206034515
C 1.971168540 0.171503852 -2.329823554
H 1.313505411 -0.468583350 -4.161294335
H 3.308088848 1.723489563 -2.310070265
C -0.676838935 -3.047910505 -0.199547331
H -1.247950321 -3.568802532 -2.108490969
H 0.140945374 -4.712905240 0.712431076
H -2.371259011 -2.550487591 0.874975359
H 2.988716270 -1.589759787 3.354542927
H 0.471336548 0.566125097 3.513681186
H 3.397384946 1.525788589 2.202327247

