10

N -3.503871655 -0.054722160 -0.627499225
C -1.142004318 -0.768094377 0.130024609
N -0.473410069 -2.790185498 1.164374783
O 3.916017597 -2.230589896 0.627911280
C 3.414422509 -0.069673768 -0.027697036
C 0.984394904 0.986028440 0.028107163
H -3.757058692 1.799620638 -0.951047493
H -4.983168522 -0.997088894 0.103521503
H 4.899451236 1.139404679 -0.860247589
H 0.646117110 2.970625242 0.412763656

