11

C -0.576264706 2.620339787 0.757531658
C -2.274118944 0.786621535 -0.098233728
C -1.371007850 -1.561875196 -0.714659064
N 1.115644302 -1.981243236 -0.465101189
C 2.743697820 -0.180437438 0.365044348
C 2.045664170 2.255477381 1.043722875
H -1.378493659 4.456378376 1.230137838
H -4.278047171 1.162937249 -0.288008113
H -2.519632823 -3.111382437 -1.386761570
H 4.684111596 -0.855807564 0.444346818
H 1.794776987 -3.706714499 -0.915082623

