11

C -0.522742031 2.545557674 0.338955791
C -2.275969779 0.625691816 -0.007727147
C -1.476972560 -1.859135408 -0.244928971
N 0.941220936 -2.505970274 0.035912809
C 2.664682872 -0.469079705 0.458905155
C 2.103502753 2.137575347 0.582228172
H -1.243704219 4.468829158 0.444968633
H -4.279956985 1.036079878 -0.157947335
H -2.778081765 -3.386614527 -0.658345376
H 4.545830055 -1.195054675 0.859614021
H 2.308520463 -1.513587213 -1.678700389

