10

O 1.621769763 -3.319791204 -0.392778781
C 1.898538900 1.258674214 0.681883559
C 0.511164378 -1.161869441 0.563173024
N -1.911587648 -0.542730647 -0.667658324
N -2.192938823 1.844933757 -0.784798346
C -0.000654507 2.943922485 -0.015222783
H 3.305714464 -2.858542788 -0.892677822
H -0.028677388 -1.406648198 2.577413222
H -3.408398213 -1.683698791 -0.971271153
H 0.084510177 4.981098799 -0.112146742

