10

O 2.587892962 -1.515260981 -0.474149632
C 1.826032187 1.133999684 1.082046974
C 0.225574434 -1.076089858 1.496788323
N -2.081675131 -0.730399140 0.417971079
N -2.085370547 1.441411845 -1.046539304
C 0.095110558 2.464794842 -0.728264185
H 1.840570852 -1.411686226 -2.137532998
H 0.473495541 -2.521867897 2.918222928
H -3.417549325 -2.033738486 0.073380069
H 0.478502957 4.261582441 -1.624773842

