10

C 2.905580717 1.454193915 0.508025940
O 2.150052358 -0.744575677 -0.792753318
C 1.804847148 -2.840162329 0.607384867
C 2.085666233 -3.109390628 3.087419349
H 1.731693941 -4.939459724 3.919877344
H 2.651364649 -1.593568265 4.334032065
H 1.232409553 -4.400565618 -0.590490149
H 4.721047521 1.168798462 1.458089736
H 1.489061176 2.010365220 1.909128188
H 3.097563966 2.933960435 -0.905430128

