17

C 3.803390298 1.598239612 0.294943918
O 2.215543954 -0.181687964 -0.891986843
C 1.453156569 -2.176456008 0.606824034
C -0.546679305 -1.533469948 2.439735826
C -2.520663121 -0.926691494 0.453885853
C -2.353076180 1.325139264 -1.038061123
O -2.842319849 1.374459775 -3.536745142
H 5.569875590 0.709046445 0.895220278
H 2.909856374 2.458485387 1.953330659
H 4.193953054 3.073887190 -1.089605860
H 1.283477153 -3.920065636 -0.460594967
H -1.120679515 -3.136527095 3.587809567
H -0.134086613 0.063382907 3.677253706
H -3.420071902 -2.536090656 -0.444212988
H -4.282996741 0.653689356 0.707094868
H -1.818163821 3.121359492 -0.222963060
H -2.325352518 -0.219090519 -4.252395348

