17

O 3.119804323 1.604546459 0.384752434
C 2.971345624 -1.079042045 0.379767885
C 0.664580055 -1.647982551 -1.378046040
C -1.758064427 -1.892672756 0.190833917
C -2.690450894 0.840083153 0.691888676
C -0.662202723 2.771143994 0.493067548
O 0.455576554 0.405566652 -2.937534625
H 2.651275208 1.841362024 -1.460057641
H 2.749872670 -1.747827138 2.317450099
H 4.725934334 -1.833265719 -0.409612178
H 1.004085397 -3.417693908 -2.409536850
H -1.445535927 -2.940822163 1.943526363
H -3.220750676 -2.880020678 -0.870568631
H -3.561159100 0.966552224 2.560541010
H -4.091623081 1.289762306 -0.746318647
H 0.103731224 3.501867941 2.240654880
H -0.757516597 4.122406341 -1.032164857

