14

C 1.995460950 -2.258571770 0.298261843
C 0.690959177 0.285051561 0.301724123
C 1.880485647 2.632854763 -3.425677207
O 0.334678263 1.123843483 -2.297889601
C -1.857678524 0.151469618 1.642403154
O -1.913980060 -0.291362339 3.887936154
N -3.919188841 0.521030241 0.194734142
H 3.877096099 -2.097437072 -0.526993726
H 2.161533464 -2.932883669 2.235581287
H 0.901817312 -3.623599657 -0.792839055
H 1.829432239 1.714629752 1.265206392
H 3.406951306 3.110436742 -2.024552471
H -5.625413091 0.447296832 1.022337109
H -3.769743082 0.894168249 -1.658626339

