14

C -3.363122321 -0.250638855 -0.164327825
C -1.385389176 -0.020876182 1.898540979
H -2.220096493 -0.489418978 3.733171042
C 1.173096474 -1.421209728 1.420418462
O 1.186103969 -2.857948639 -0.821257910
H 2.833476762 -3.576485723 -1.042189268
H 1.754739605 -2.590353650 3.031019925
C 2.371044849 1.177783259 1.392928049
H 4.302833159 1.808367254 1.141441444
C 0.213469113 2.354176397 1.921427131
H -0.260802350 4.310835828 2.300418791
H -4.919506786 1.059633084 0.185467454
H -4.135547327 -2.161843077 -0.231693254
H -2.558263228 0.171638174 -2.013046439

