16

C -2.410809486 -1.971395609 -0.876311471
C -0.428432868 0.057138458 0.619868568
C -1.494277670 2.705776554 0.197483826
O 0.060509068 -0.576567535 2.956222524
C 1.400548804 -0.798305145 -1.185070988
O 4.363523792 0.563386922 1.126678923
H -1.949250249 -3.914246187 -0.398698953
H -4.117175561 -1.426687685 0.138361816
H -2.750502951 -1.733188658 -2.895105549
H -2.004126346 3.083342151 -1.768244419
H -3.160794070 2.933808747 1.385287905
H -0.087733994 4.085842106 0.800610951
H 2.979203710 0.143281699 2.412934011
H 2.175181558 -2.668126671 -0.917172811
H 1.653671024 0.096611265 -3.014665970
H 5.688095817 -0.648390639 1.374779308

