17

C 3.514594018 1.087137821 -0.314511843
C 1.088397456 -0.092578854 0.545240298
C 1.013206123 -2.727052621 1.375102281
C -3.042474519 -1.776673316 -1.203248830
C -3.020640944 1.080627148 -0.969468071
C -1.129203143 1.624731588 1.153023784
O 0.161432027 -2.103247961 -1.140215163
H 3.149947741 2.452094579 -1.816767673
H 4.840333308 -0.329103609 -1.005498383
H 4.383344392 2.087916859 1.266890176
H -0.534386637 -3.347379259 2.562623412
H 2.730292897 -3.848259388 1.378410701
H -3.277204090 -2.317023210 -3.193901920
H -4.911435180 1.717887678 -0.438202960
H -2.456585569 2.142763930 -2.670239762
H -0.519194656 3.594372095 1.202705402
H -1.942522465 1.138757788 2.982243164

