14

C 2.788508877 -0.820524488 -1.167786041
C 0.296805393 -0.148611785 0.004454670
C -1.432185994 -2.121129287 1.089789919
C -2.264253383 -0.680460992 -1.143906233
O -3.063936006 2.375744239 0.511789065
C -0.375026165 2.479471948 0.864125345
H 2.698821058 -2.660928515 -2.095033227
H 4.283744657 -0.903353111 0.253497972
H 3.324166940 0.573440926 -2.592319684
H -0.862949709 -4.041723993 0.642700863
H -2.445741622 -1.916366444 2.855990827
H -3.463984148 1.298687974 -1.481280134
H 0.051846696 2.936128442 2.834370678
H 0.471831165 3.921262721 -0.357261417

