15

C -5.269279804 -0.644662436 0.318353619
N -2.863448914 0.026492203 -0.777226251
C -1.278797492 1.151216298 0.589332862
N 1.049289781 2.052098177 -0.340095692
C 3.127146381 0.152425120 -0.578352702
C 4.988759390 -0.953153933 1.141514407
C 1.973551446 0.663477060 -2.620740560
H -5.566879751 -2.677225135 0.120437216
H -5.438786933 -0.141194213 2.325489221
H -6.785510649 0.292857698 -0.722411533
H -1.623663155 1.652136018 2.572268593
H 6.018381450 0.550545250 2.109953465
H 4.047958200 -2.102888346 2.573986751
H 6.317733060 -2.133662310 0.103948108
H 1.579987465 0.630019723 -4.607377094

