15

C -3.715332519 0.843889156 -0.576989095
C -0.894371243 0.400230519 -0.201210536
O -0.579684487 -0.639520548 2.240636474
C 1.806284398 -0.867434974 3.098504086
C 3.948211614 -0.206416523 1.967507535
C -0.054677392 -1.452213860 -2.196320960
O 0.342650243 -0.147293191 -4.259652029
H -4.733417102 -0.948271977 -0.569127343
H -4.423402674 2.010470251 0.964156505
H -4.053697940 1.807075022 -2.365252215
H 0.131304804 2.202717343 -0.330398336
H 1.798627984 -1.702362293 4.969098963
H 5.707068932 -0.519052397 2.955554014
H 4.052857579 0.614068602 0.100292528
H 0.775311090 -1.304042513 -5.596465927

