15

C -3.880469090 -0.092280523 -0.429694487
C -1.278491073 0.906659036 0.168553800
O -0.547598638 0.342259845 2.714019331
C 2.031315593 0.267716536 2.410014327
C 3.065264086 -1.751963711 1.238228379
C 0.757488629 -0.344258759 -1.528854991
O 1.731555632 1.420287901 -3.057941908
H -3.937086758 -2.136581369 -0.180184271
H -5.298934973 0.781552949 0.785358745
H -4.345335140 0.343950318 -2.393546177
H -1.232839655 2.970744691 -0.057699896
H 3.053285415 2.003454076 2.811512456
H 5.047533180 -1.691275931 0.726865636
H 2.166401304 -3.579673937 1.251124342
H 2.702404640 0.575635957 -4.338288673

