26

C     3.25057  -2.43364  -1.21996
N     2.52442  -1.20242  -0.95738
C     2.01976  -0.93158   0.24595
O     2.19711  -1.54495   1.29357
C     1.05236   0.22808   0.26760
N     0.33261   0.53670   1.31973
C    -0.86117   1.24261   0.77018
C    -1.38092   2.21965   1.78422
N    -1.89734   2.90320   2.56344
C    -0.11595   1.99017  -0.40785
O    -0.37544   2.94371  -1.03473
O     0.94336   1.10630  -0.72732
C    -1.67220   0.39357   0.14869
F    -2.99845   0.92853   0.05649
C    -1.42908  -0.78085  -0.47556
C    -0.78570  -1.91830  -0.95303
C    -0.70683  -3.12375  -0.01415
O    -0.23593  -2.01202  -2.08894
H     3.96625  -2.27170  -2.03721
H     3.79311  -2.74527  -0.31798
H     2.54937  -3.23288  -1.51156
H     2.17143  -0.68426  -1.75486
H     0.26883  -0.07997   2.12697
H    -0.59858  -4.06597  -0.60101
H    -1.57186  -3.19899   0.64658
H     0.20039  -3.03252   0.61476
26

C     3.25082  -2.43392  -1.21997
N     2.52513  -1.20272  -0.95724
C     2.01976  -0.93171   0.24607
O     2.19753  -1.54606   1.29348
C     1.05501   0.22809   0.26814
N     0.33361   0.53687   1.31884
C    -0.83855   1.26382   0.78234
C    -1.37643   2.22382   1.78904
N    -1.90151   2.90386   2.56554
C    -0.11483   1.99271  -0.40357
O    -0.37712   2.94352  -1.03687
O     0.94164   1.10491  -0.72687
C    -1.69671   0.37795   0.13107
F    -3.00075   0.93099   0.05737
C    -1.43147  -0.78477  -0.47877
C    -0.78383  -1.92376  -0.95482
C    -0.70551  -3.12592  -0.01455
O    -0.23538  -2.01305  -2.08889
H     3.96636  -2.27187  -2.03720
H     3.79322  -2.74538  -0.31801
H     2.54954  -3.23308  -1.51152
H     2.17175  -0.68420  -1.75476
H     0.27028  -0.07796   2.12822
H    -0.59691  -4.06693  -0.60030
H    -1.57206  -3.19936   0.64567
H     0.20005  -3.03183   0.61545
26

C     3.25108  -2.43421  -1.21998
N     2.52585  -1.20302  -0.95711
C     2.01976  -0.93184   0.24619
O     2.19794  -1.54716   1.29340
C     1.05765   0.22810   0.26868
N     0.33461   0.53705   1.31795
C    -0.81593   1.28504   0.79451
C    -1.37194   2.22799   1.79385
N    -1.90568   2.90452   2.56764
C    -0.11371   1.99525  -0.39928
O    -0.37881   2.94332  -1.03901
O     0.93992   1.10352  -0.72643
C    -1.72121   0.36233   0.11345
F    -3.00304   0.93345   0.05825
C    -1.43386  -0.78870  -0.48197
C    -0.78196  -1.92921  -0.95661
C    -0.70418  -3.12810  -0.01496
O    -0.23484  -2.01407  -2.08885
H     3.96648  -2.27204  -2.03719
H     3.79333  -2.74549  -0.31803
H     2.54970  -3.23327  -1.51149
H     2.17207  -0.68414  -1.75466
H     0.27174  -0.07595   2.12946
H    -0.59524  -4.06788  -0.59958
H    -1.57226  -3.19973   0.64477
H     0.19971  -3.03114   0.61613
26

C     3.25133  -2.43449  -1.21998
N     2.52656  -1.20331  -0.95697
C     2.01976  -0.93196   0.24631
O     2.19835  -1.54827   1.29331
C     1.06030   0.22811   0.26922
N     0.33561   0.53722   1.31706
C    -0.79331   1.30625   0.80667
C    -1.36746   2.23215   1.79867
N    -1.90985   2.90518   2.56974
C    -0.11259   1.99780  -0.39499
O    -0.38050   2.94313  -1.04115
O     0.93820   1.10213  -0.72598
C    -1.74572   0.34671   0.09583
F    -3.00533   0.93591   0.05913
C    -1.43626  -0.79262  -0.48517
C    -0.78009  -1.93467  -0.95840
C    -0.70285  -3.13027  -0.01536
O    -0.23430  -2.01510  -2.08880
H     3.96660  -2.27221  -2.03718
H     3.79345  -2.74560  -0.31806
H     2.54986  -3.23346  -1.51146
H     2.17239  -0.68407  -1.75456
H     0.27319  -0.07393   2.13071
H    -0.59357  -4.06883  -0.59887
H    -1.57246  -3.20010   0.64386
H     0.19937  -3.03045   0.61682
26

C     3.25159  -2.43477  -1.21999
N     2.52727  -1.20361  -0.95684
C     2.01975  -0.93209   0.24643
O     2.19876  -1.54937   1.29323
C     1.06294   0.22812   0.26976
N     0.33661   0.53739   1.31618
C    -0.77069   1.32746   0.81884
C    -1.36297   2.23632   1.80348
N    -1.91402   2.90584   2.57184
C    -0.11147   2.00034  -0.39071
O    -0.38219   2.94293  -1.04329
O     0.93648   1.10074  -0.72553
C    -1.77023   0.33109   0.07821
F    -3.00763   0.93837   0.06002
C    -1.43865  -0.79655  -0.48838
C    -0.77822  -1.94013  -0.96019
C    -0.70153  -3.13245  -0.01576
O    -0.23375  -2.01612  -2.08876
H     3.96672  -2.27239  -2.03717
H     3.79356  -2.74572  -0.31808
H     2.55002  -3.23365  -1.51142
H     2.17271  -0.68401  -1.75446
H     0.27465  -0.07192   2.13196
H    -0.59191  -4.06978  -0.59815
H    -1.57266  -3.20047   0.64295
H     0.19902  -3.02976   0.61750
26

C     3.25185  -2.43506  -1.22000
N     2.52798  -1.20391  -0.95671
C     2.01975  -0.93222   0.24654
O     2.19917  -1.55048   1.29314
C     1.06558   0.22813   0.27030
N     0.33761   0.53757   1.31529
C    -0.74806   1.34868   0.83100
C    -1.35848   2.24049   1.80830
N    -1.91819   2.90650   2.57394
C    -0.11036   2.00288  -0.38642
O    -0.38388   2.94273  -1.04543
O     0.93476   1.09935  -0.72508
C    -1.79474   0.31546   0.06059
F    -3.00992   0.94083   0.06090
C    -1.44104  -0.80047  -0.49158
C    -0.77635  -1.94559  -0.96198
C    -0.70020  -3.13463  -0.01617
O    -0.23321  -2.01715  -2.08872
H     3.96684  -2.27256  -2.03716
H     3.79367  -2.74583  -0.31811
H     2.55018  -3.23384  -1.51139
H     2.17303  -0.68395  -1.75436
H     0.27610  -0.06990   2.13320
H    -0.59024  -4.07074  -0.59744
H    -1.57286  -3.20084   0.64204
H     0.19868  -3.02907   0.61819
26

C     3.25210  -2.43534  -1.22001
N     2.52870  -1.20421  -0.95657
C     2.01975  -0.93235   0.24666
O     2.19958  -1.55158   1.29306
C     1.06823   0.22814   0.27084
N     0.33861   0.53774   1.31440
C    -0.72544   1.36989   0.84316
C    -1.35399   2.24466   1.81312
N    -1.92236   2.90716   2.57604
C    -0.10924   2.00542  -0.38214
O    -0.38557   2.94254  -1.04756
O     0.93304   1.09795  -0.72463
C    -1.81925   0.29984   0.04297
F    -3.01221   0.94329   0.06178
C    -1.44344  -0.80440  -0.49479
C    -0.77448  -1.95105  -0.96376
C    -0.69888  -3.13680  -0.01657
O    -0.23267  -2.01818  -2.08867
H     3.96695  -2.27273  -2.03715
H     3.79378  -2.74594  -0.31813
H     2.55034  -3.23403  -1.51136
H     2.17335  -0.68388  -1.75427
H     0.27756  -0.06789   2.13445
H    -0.58857  -4.07169  -0.59673
H    -1.57307  -3.20121   0.64113
H     0.19834  -3.02838   0.61887
26

C     3.25236  -2.43562  -1.22002
N     2.52941  -1.20451  -0.95644
C     2.01975  -0.93247   0.24678
O     2.19999  -1.55269   1.29297
C     1.07087   0.22815   0.27138
N     0.33961   0.53792   1.31351
C    -0.70282   1.39110   0.85533
C    -1.34950   2.24883   1.81793
N    -1.92653   2.90782   2.57814
C    -0.10812   2.00797  -0.37785
O    -0.38726   2.94234  -1.04970
O     0.93132   1.09656  -0.72418
C    -1.84376   0.28422   0.02535
F    -3.01451   0.94574   0.06266
C    -1.44583  -0.80832  -0.49799
C    -0.77261  -1.95651  -0.96555
C    -0.69755  -3.13898  -0.01698
O    -0.23212  -2.01920  -2.08863
H     3.96707  -2.27290  -2.03714
H     3.79389  -2.74606  -0.31816
H     2.55050  -3.23422  -1.51132
H     2.17367  -0.68382  -1.75417
H     0.27901  -0.06587   2.13570
H    -0.58690  -4.07264  -0.59601
H    -1.57327  -3.20159   0.64022
H     0.19800  -3.02769   0.61956
26

C     3.25261  -2.43591  -1.22002
N     2.53012  -1.20481  -0.95630
C     2.01975  -0.93260   0.24690
O     2.20040  -1.55379   1.29289
C     1.07352   0.22816   0.27192
N     0.34061   0.53809   1.31262
C    -0.68020   1.41231   0.86749
C    -1.34501   2.25300   1.82275
N    -1.93070   2.90848   2.58024
C    -0.10700   2.01051  -0.37356
O    -0.38895   2.94215  -1.05184
O     0.92960   1.09517  -0.72373
C    -1.86827   0.26860   0.00773
F    -3.01680   0.94820   0.06354
C    -1.44822  -0.81225  -0.50120
C    -0.77074  -1.96197  -0.96734
C    -0.69622  -3.14116  -0.01738
O    -0.23158  -2.02023  -2.08858
H     3.96719  -2.27307  -2.03712
H     3.79400  -2.74617  -0.31819
H     2.55066  -3.23441  -1.51129
H     2.17398  -0.68376  -1.75407
H     0.28047  -0.06386   2.13694
H    -0.58524  -4.07359  -0.59530
H    -1.57347  -3.20196   0.63931
H     0.19766  -3.02700   0.62024
26

C     3.25287  -2.43619  -1.22003
N     2.53084  -1.20511  -0.95617
C     2.01974  -0.93273   0.24702
O     2.20081  -1.55490   1.29280
C     1.07616   0.22817   0.27246
N     0.34161   0.53826   1.31173
C    -0.65758   1.43353   0.87966
C    -1.34052   2.25716   1.82756
N    -1.93487   2.90914   2.58234
C    -0.10588   2.01305  -0.36928
O    -0.39064   2.94195  -1.05398
O     0.92788   1.09378  -0.72328
C    -1.89278   0.25298  -0.00989
F    -3.01910   0.95066   0.06442
C    -1.45062  -0.81617  -0.50440
C    -0.76887  -1.96743  -0.96913
C    -0.69490  -3.14333  -0.01779
O    -0.23104  -2.02125  -2.08854
H     3.96731  -2.27325  -2.03711
H     3.79411  -2.74628  -0.31821
H     2.55083  -3.23460  -1.51126
H     2.17430  -0.68370  -1.75397
H     0.28192  -0.06185   2.13819
H    -0.58357  -4.07455  -0.59458
H    -1.57367  -3.20233   0.63840
H     0.19732  -3.02631   0.62093
26

C     3.25313  -2.43647  -1.22004
N     2.53155  -1.20541  -0.95604
C     2.01974  -0.93286   0.24714
O     2.20122  -1.55600   1.29272
C     1.07881   0.22818   0.27300
N     0.34261   0.53844   1.31084
C    -0.63495   1.45474   0.89182
C    -1.33604   2.26133   1.83238
N    -1.93904   2.90980   2.58444
C    -0.10476   2.01559  -0.36499
O    -0.39233   2.94175  -1.05612
O     0.92616   1.09239  -0.72284
C    -1.91728   0.23736  -0.02751
F    -3.02139   0.95312   0.06530
C    -1.45301  -0.82010  -0.50761
C    -0.76700  -1.97289  -0.97092
C    -0.69357  -3.14551  -0.01819
O    -0.23050  -2.02228  -2.08849
H     3.96743  -2.27342  -2.03710
H     3.79422  -2.74639  -0.31824
H     2.55099  -3.23479  -1.51122
H     2.17462  -0.68363  -1.75387
H     0.28337  -0.05983   2.13944
H    -0.58190  -4.07550  -0.59387
H    -1.57387  -3.20270   0.63749
H     0.19698  -3.02562   0.62161
26

C     3.25338  -2.43676  -1.22005
N     2.53226  -1.20570  -0.95590
C     2.01974  -0.93298   0.24726
O     2.20163  -1.55711   1.29264
C     1.08145   0.22819   0.27355
N     0.34360   0.53861   1.30995
C    -0.61233   1.47595   0.90398
C    -1.33155   2.26550   1.83720
N    -1.94322   2.91046   2.58654
C    -0.10364   2.01814  -0.36071
O    -0.39402   2.94156  -1.05826
O     0.92443   1.09100  -0.72239
C    -1.94179   0.22173  -0.04513
F    -3.02368   0.95558   0.06618
C    -1.45540  -0.82402  -0.51081
C    -0.76513  -1.97834  -0.97271
C    -0.69225  -3.14768  -0.01860
O    -0.22995  -2.02330  -2.08845
H     3.96754  -2.27359  -2.03709
H     3.79433  -2.74651  -0.31826
H     2.55115  -3.23498  -1.51119
H     2.17494  -0.68357  -1.75377
H     0.28483  -0.05782   2.14068
H    -0.58023  -4.07645  -0.59315
H    -1.57407  -3.20307   0.63658
H     0.19664  -3.02493   0.62230
26

C     3.25364  -2.43704  -1.22006
N     2.53297  -1.20600  -0.95577
C     2.01974  -0.93311   0.24738
O     2.20204  -1.55821   1.29255
C     1.08410   0.22820   0.27409
N     0.34460   0.53878   1.30906
C    -0.58971   1.49716   0.91615
C    -1.32706   2.26967   1.84201
N    -1.94739   2.91112   2.58864
C    -0.10252   2.02068  -0.35642
O    -0.39571   2.94136  -1.06040
O     0.92271   1.08961  -0.72194
C    -1.96630   0.20611  -0.06275
F    -3.02598   0.95804   0.06707
C    -1.45780  -0.82795  -0.51402
C    -0.76325  -1.98380  -0.97450
C    -0.69092  -3.14986  -0.01900
O    -0.22941  -2.02433  -2.08840
H     3.96766  -2.27376  -2.03708
H     3.79444  -2.74662  -0.31829
H     2.55131  -3.23517  -1.51116
H     2.17526  -0.68351  -1.75367
H     0.28628  -0.05580   2.14193
H    -0.57857  -4.07740  -0.59244
H    -1.57427  -3.20344   0.63568
H     0.19630  -3.02424   0.62298
26

C     3.25390  -2.43732  -1.22006
N     2.53369  -1.20630  -0.95563
C     2.01974  -0.93324   0.24750
O     2.20245  -1.55932   1.29247
C     1.08674   0.22821   0.27463
N     0.34560   0.53896   1.30817
C    -0.56709   1.51838   0.92831
C    -1.32257   2.27384   1.84683
N    -1.95156   2.91177   2.59074
C    -0.10140   2.02322  -0.35213
O    -0.39740   2.94116  -1.06254
O     0.92099   1.08822  -0.72149
C    -1.99081   0.19049  -0.08037
F    -3.02827   0.96050   0.06795
C    -1.46019  -0.83187  -0.51722
C    -0.76138  -1.98926  -0.97629
C    -0.68960  -3.15204  -0.01940
O    -0.22887  -2.02536  -2.08836
H     3.96778  -2.27393  -2.03707
H     3.79455  -2.74673  -0.31831
H     2.55147  -3.23537  -1.51112
H     2.17558  -0.68344  -1.75357
H     0.28774  -0.05379   2.14317
H    -0.57690  -4.07835  -0.59173
H    -1.57447  -3.20381   0.63477
H     0.19596  -3.02354   0.62367
26

C     3.25415  -2.43761  -1.22007
N     2.53440  -1.20660  -0.95550
C     2.01973  -0.93336   0.24762
O     2.20286  -1.56042   1.29238
C     1.08939   0.22821   0.27517
N     0.34660   0.53913   1.30728
C    -0.54447   1.53959   0.94048
C    -1.31808   2.27801   1.85164
N    -1.95573   2.91243   2.59284
C    -0.10028   2.02576  -0.34785
O    -0.39909   2.94097  -1.06468
O     0.91927   1.08683  -0.72104
C    -2.01532   0.17487  -0.09799
F    -3.03056   0.96295   0.06883
C    -1.46258  -0.83580  -0.52042
C    -0.75951  -1.99472  -0.97807
C    -0.68827  -3.15421  -0.01981
O    -0.22832  -2.02638  -2.08832
H     3.96790  -2.27411  -2.03706
H     3.79466  -2.74684  -0.31834
H     2.55163  -3.23556  -1.51109
H     2.17590  -0.68338  -1.75348
H     0.28919  -0.05177   2.14442
H    -0.57523  -4.07931  -0.59101
H    -1.57468  -3.20418   0.63386
H     0.19562  -3.02285   0.62435
26

C     3.25441  -2.43789  -1.22008
N     2.53511  -1.20690  -0.95537
C     2.01973  -0.93349   0.24773
O     2.20327  -1.56153   1.29230
C     1.09203   0.22822   0.27571
N     0.34760   0.53931   1.30639
C    -0.52184   1.56080   0.95264
C    -1.31359   2.28217   1.85646
N    -1.95990   2.91309   2.59494
C    -0.09916   2.02830  -0.34356
O    -0.40078   2.94077  -1.06682
O     0.91755   1.08544  -0.72059
C    -2.03983   0.15925  -0.11561
F    -3.03286   0.96541   0.06971
C    -1.46498  -0.83972  -0.52363
C    -0.75764  -2.00018  -0.97986
C    -0.68694  -3.15639  -0.02021
O    -0.22778  -2.02741  -2.08827
H     3.96801  -2.27428  -2.03705
H     3.79477  -2.74696  -0.31836
H     2.55179  -3.23575  -1.51106
H     2.17622  -0.68332  -1.75338
H     0.29065  -0.04976   2.14567
H    -0.57356  -4.08026  -0.59030
H    -1.57488  -3.20456   0.63295
H     0.19528  -3.02216   0.62504
26

C     3.25466  -2.43817  -1.22009
N     2.53582  -1.20720  -0.95523
C     2.01973  -0.93362   0.24785
O     2.20368  -1.56263   1.29221
C     1.09467   0.22823   0.27625
N     0.34860   0.53948   1.30550
C    -0.49922   1.58202   0.96480
C    -1.30910   2.28634   1.86128
N    -1.96407   2.91375   2.59704
C    -0.09804   2.03085  -0.33928
O    -0.40246   2.94058  -1.06896
O     0.91583   1.08405  -0.72014
C    -2.06434   0.14363  -0.13323
F    -3.03515   0.96787   0.07059
C    -1.46737  -0.84365  -0.52683
C    -0.75577  -2.00564  -0.98165
C    -0.68562  -3.15857  -0.02062
O    -0.22724  -2.02843  -2.08823
H     3.96813  -2.27445  -2.03704
H     3.79488  -2.74707  -0.31839
H     2.55196  -3.23594  -1.51102
H     2.17654  -0.68325  -1.75328
H     0.29210  -0.04775   2.14691
H    -0.57190  -4.08121  -0.58958
H    -1.57508  -3.20493   0.63204
H     0.19493  -3.02147   0.62572
26

C     3.25492  -2.43845  -1.22010
N     2.53654  -1.20750  -0.95510
C     2.01973  -0.93375   0.24797
O     2.20409  -1.56374   1.29213
C     1.09732   0.22824   0.27679
N     0.34960   0.53965   1.30461
C    -0.47660   1.60323   0.97697
C    -1.30462   2.29051   1.86609
N    -1.96824   2.91441   2.59914
C    -0.09693   2.03339  -0.33499
O    -0.40415   2.94038  -1.07110
O     0.91411   1.08265  -0.71969
C    -2.08884   0.12801  -0.15085
F    -3.03745   0.97033   0.07147
C    -1.46976  -0.84757  -0.53004
C    -0.75390  -2.01110  -0.98344
C    -0.68429  -3.16074  -0.02102
O    -0.22670  -2.02946  -2.08818
H     3.96825  -2.27462  -2.03703
H     3.79499  -2.74718  -0.31842
H     2.55212  -3.23613  -1.51099
H     2.17686  -0.68319  -1.75318
H     0.29356  -0.04573   2.14816
H    -0.57023  -4.08216  -0.58887
H    -1.57528  -3.20530   0.63113
H     0.19459  -3.02078   0.62641
26

C     3.25518  -2.43874  -1.22010
N     2.53725  -1.20779  -0.95496
C     2.01973  -0.93387   0.24809
O     2.20450  -1.56484   1.29204
C     1.09996   0.22825   0.27733
N     0.35060   0.53983   1.30372
C    -0.45398   1.62444   0.98913
C    -1.30013   2.29468   1.87091
N    -1.97241   2.91507   2.60125
C    -0.09581   2.03593  -0.33070
O    -0.40584   2.94018  -1.07324
O     0.91239   1.08126  -0.71925
C    -2.11335   0.11238  -0.16847
F    -3.03974   0.97279   0.07235
C    -1.47216  -0.85150  -0.53324
C    -0.75203  -2.01656  -0.98523
C    -0.68297  -3.16292  -0.02143
O    -0.22615  -2.03048  -2.08814
H     3.96837  -2.27479  -2.03701
H     3.79510  -2.74729  -0.31844
H     2.55228  -3.23632  -1.51096
H     2.17718  -0.68313  -1.75308
H     0.29501  -0.04372   2.14941
H    -0.56856  -4.08312  -0.58815
H    -1.57548  -3.20567   0.63022
H     0.19425  -3.02009   0.62709
26

C     3.25543  -2.43902  -1.22011
N     2.53796  -1.20809  -0.95483
C     2.01972  -0.93400   0.24821
O     2.20491  -1.56595   1.29196
C     1.10261   0.22826   0.27787
N     0.35160   0.54000   1.30283
C    -0.43136   1.64565   1.00130
C    -1.29564   2.29885   1.87573
N    -1.97658   2.91573   2.60335
C    -0.09469   2.03847  -0.32642
O    -0.40753   2.93999  -1.07538
O     0.91067   1.07987  -0.71880
C    -2.13786   0.09676  -0.18609
F    -3.04203   0.97525   0.07324
C    -1.47455  -0.85542  -0.53645
C    -0.75016  -2.02202  -0.98702
C    -0.68164  -3.16509  -0.02183
O    -0.22561  -2.03151  -2.08809
H     3.96849  -2.27497  -2.03700
H     3.79521  -2.74741  -0.31847
H     2.55244  -3.23651  -1.51092
H     2.17750  -0.68306  -1.75298
H     0.29646  -0.04170   2.15065
H    -0.56689  -4.08407  -0.58744
H    -1.57568  -3.20604   0.62931
H     0.19391  -3.01940   0.62778
26

C     3.25569  -2.43930  -1.22012
N     2.53868  -1.20839  -0.95470
C     2.01972  -0.93413   0.24833
O     2.20532  -1.56705   1.29187
C     1.10525   0.22827   0.27841
N     0.35260   0.54018   1.30194
C    -0.40873   1.66687   1.01346
C    -1.29115   2.30302   1.88054
N    -1.98075   2.91639   2.60545
C    -0.09357   2.04102  -0.32213
O    -0.40922   2.93979  -1.07752
O     0.90895   1.07848  -0.71835
C    -2.16237   0.08114  -0.20371
F    -3.04433   0.97771   0.07412
C    -1.47694  -0.85935  -0.53965
C    -0.74829  -2.02748  -0.98881
C    -0.68031  -3.16727  -0.02224
O    -0.22507  -2.03253  -2.08805
H     3.96860  -2.27514  -2.03699
H     3.79532  -2.74752  -0.31849
H     2.55260  -3.23670  -1.51089
H     2.17782  -0.68300  -1.75288
H     0.29792  -0.03969   2.15190
H    -0.56523  -4.08502  -0.58673
H    -1.57588  -3.20641   0.62840
H     0.19357  -3.01871   0.62846
26

C     3.25543  -2.43902  -1.22011
N     2.53796  -1.20809  -0.95483
C     2.01972  -0.93400   0.24821
O     2.20491  -1.56595   1.29196
C     1.10261   0.22826   0.27787
N     0.35160   0.54000   1.30283
C    -0.43136   1.64565   1.00130
C    -1.29564   2.29885   1.87573
N    -1.97658   2.91573   2.60335
C    -0.09469   2.03847  -0.32642
O    -0.40753   2.93999  -1.07538
O     0.91067   1.07987  -0.71880
C    -2.13786   0.09676  -0.18609
F    -3.04203   0.97525   0.07324
C    -1.47455  -0.85542  -0.53645
C    -0.75016  -2.02202  -0.98702
C    -0.68164  -3.16509  -0.02183
O    -0.22561  -2.03151  -2.08809
H     3.96849  -2.27497  -2.03700
H     3.79521  -2.74741  -0.31847
H     2.55244  -3.23651  -1.51092
H     2.17750  -0.68306  -1.75298
H     0.29646  -0.04170   2.15065
H    -0.56689  -4.08407  -0.58744
H    -1.57568  -3.20604   0.62931
H     0.19391  -3.01940   0.62778
26

C     3.25518  -2.43874  -1.22010
N     2.53725  -1.20779  -0.95496
C     2.01973  -0.93387   0.24809
O     2.20450  -1.56484   1.29204
C     1.09996   0.22825   0.27733
N     0.35060   0.53983   1.30372
C    -0.45398   1.62444   0.98913
C    -1.30013   2.29468   1.87091
N    -1.97241   2.91507   2.60125
C    -0.09581   2.03593  -0.33070
O    -0.40584   2.94018  -1.07324
O     0.91239   1.08126  -0.71925
C    -2.11335   0.11238  -0.16847
F    -3.03974   0.97279   0.07235
C    -1.47216  -0.85150  -0.53324
C    -0.75203  -2.01656  -0.98523
C    -0.68297  -3.16292  -0.02143
O    -0.22615  -2.03048  -2.08814
H     3.96837  -2.27479  -2.03701
H     3.79510  -2.74729  -0.31844
H     2.55228  -3.23632  -1.51096
H     2.17718  -0.68313  -1.75308
H     0.29501  -0.04372   2.14941
H    -0.56856  -4.08312  -0.58815
H    -1.57548  -3.20567   0.63022
H     0.19425  -3.02009   0.62709
26

C     3.25492  -2.43845  -1.22010
N     2.53654  -1.20750  -0.95510
C     2.01973  -0.93375   0.24797
O     2.20409  -1.56374   1.29213
C     1.09732   0.22824   0.27679
N     0.34960   0.53965   1.30461
C    -0.47660   1.60323   0.97697
C    -1.30462   2.29051   1.86609
N    -1.96824   2.91441   2.59914
C    -0.09693   2.03339  -0.33499
O    -0.40415   2.94038  -1.07110
O     0.91411   1.08265  -0.71969
C    -2.08884   0.12801  -0.15085
F    -3.03745   0.97033   0.07147
C    -1.46976  -0.84757  -0.53004
C    -0.75390  -2.01110  -0.98344
C    -0.68429  -3.16074  -0.02102
O    -0.22670  -2.02946  -2.08818
H     3.96825  -2.27462  -2.03703
H     3.79499  -2.74718  -0.31842
H     2.55212  -3.23613  -1.51099
H     2.17686  -0.68319  -1.75318
H     0.29356  -0.04573   2.14816
H    -0.57023  -4.08216  -0.58887
H    -1.57528  -3.20530   0.63113
H     0.19459  -3.02078   0.62641
26

C     3.25466  -2.43817  -1.22009
N     2.53582  -1.20720  -0.95523
C     2.01973  -0.93362   0.24785
O     2.20368  -1.56263   1.29221
C     1.09467   0.22823   0.27625
N     0.34860   0.53948   1.30550
C    -0.49922   1.58202   0.96480
C    -1.30910   2.28634   1.86128
N    -1.96407   2.91375   2.59704
C    -0.09804   2.03085  -0.33928
O    -0.40246   2.94058  -1.06896
O     0.91583   1.08405  -0.72014
C    -2.06434   0.14363  -0.13323
F    -3.03515   0.96787   0.07059
C    -1.46737  -0.84365  -0.52683
C    -0.75577  -2.00564  -0.98165
C    -0.68562  -3.15857  -0.02062
O    -0.22724  -2.02843  -2.08823
H     3.96813  -2.27445  -2.03704
H     3.79488  -2.74707  -0.31839
H     2.55196  -3.23594  -1.51102
H     2.17654  -0.68325  -1.75328
H     0.29210  -0.04775   2.14691
H    -0.57190  -4.08121  -0.58958
H    -1.57508  -3.20493   0.63204
H     0.19493  -3.02147   0.62572
26

C     3.25441  -2.43789  -1.22008
N     2.53511  -1.20690  -0.95537
C     2.01973  -0.93349   0.24773
O     2.20327  -1.56153   1.29230
C     1.09203   0.22822   0.27571
N     0.34760   0.53931   1.30639
C    -0.52184   1.56080   0.95264
C    -1.31359   2.28217   1.85646
N    -1.95990   2.91309   2.59494
C    -0.09916   2.02830  -0.34356
O    -0.40078   2.94077  -1.06682
O     0.91755   1.08544  -0.72059
C    -2.03983   0.15925  -0.11561
F    -3.03286   0.96541   0.06971
C    -1.46498  -0.83972  -0.52363
C    -0.75764  -2.00018  -0.97986
C    -0.68694  -3.15639  -0.02021
O    -0.22778  -2.02741  -2.08827
H     3.96801  -2.27428  -2.03705
H     3.79477  -2.74696  -0.31836
H     2.55179  -3.23575  -1.51106
H     2.17622  -0.68332  -1.75338
H     0.29065  -0.04976   2.14567
H    -0.57356  -4.08026  -0.59030
H    -1.57488  -3.20456   0.63295
H     0.19528  -3.02216   0.62504
26

C     3.25415  -2.43761  -1.22007
N     2.53440  -1.20660  -0.95550
C     2.01973  -0.93336   0.24762
O     2.20286  -1.56042   1.29238
C     1.08939   0.22821   0.27517
N     0.34660   0.53913   1.30728
C    -0.54447   1.53959   0.94048
C    -1.31808   2.27801   1.85164
N    -1.95573   2.91243   2.59284
C    -0.10028   2.02576  -0.34785
O    -0.39909   2.94097  -1.06468
O     0.91927   1.08683  -0.72104
C    -2.01532   0.17487  -0.09799
F    -3.03056   0.96295   0.06883
C    -1.46258  -0.83580  -0.52042
C    -0.75951  -1.99472  -0.97807
C    -0.68827  -3.15421  -0.01981
O    -0.22832  -2.02638  -2.08832
H     3.96790  -2.27411  -2.03706
H     3.79466  -2.74684  -0.31834
H     2.55163  -3.23556  -1.51109
H     2.17590  -0.68338  -1.75348
H     0.28919  -0.05177   2.14442
H    -0.57523  -4.07931  -0.59101
H    -1.57468  -3.20418   0.63386
H     0.19562  -3.02285   0.62435
26

C     3.25390  -2.43732  -1.22006
N     2.53369  -1.20630  -0.95563
C     2.01974  -0.93324   0.24750
O     2.20245  -1.55932   1.29247
C     1.08674   0.22821   0.27463
N     0.34560   0.53896   1.30817
C    -0.56709   1.51838   0.92831
C    -1.32257   2.27384   1.84683
N    -1.95156   2.91177   2.59074
C    -0.10140   2.02322  -0.35213
O    -0.39740   2.94116  -1.06254
O     0.92099   1.08822  -0.72149
C    -1.99081   0.19049  -0.08037
F    -3.02827   0.96050   0.06795
C    -1.46019  -0.83187  -0.51722
C    -0.76138  -1.98926  -0.97629
C    -0.68960  -3.15204  -0.01940
O    -0.22887  -2.02536  -2.08836
H     3.96778  -2.27393  -2.03707
H     3.79455  -2.74673  -0.31831
H     2.55147  -3.23537  -1.51112
H     2.17558  -0.68344  -1.75357
H     0.28774  -0.05379   2.14317
H    -0.57690  -4.07835  -0.59173
H    -1.57447  -3.20381   0.63477
H     0.19596  -3.02354   0.62367
26

C     3.25364  -2.43704  -1.22006
N     2.53297  -1.20600  -0.95577
C     2.01974  -0.93311   0.24738
O     2.20204  -1.55821   1.29255
C     1.08410   0.22820   0.27409
N     0.34460   0.53878   1.30906
C    -0.58971   1.49716   0.91615
C    -1.32706   2.26967   1.84201
N    -1.94739   2.91112   2.58864
C    -0.10252   2.02068  -0.35642
O    -0.39571   2.94136  -1.06040
O     0.92271   1.08961  -0.72194
C    -1.96630   0.20611  -0.06275
F    -3.02598   0.95804   0.06707
C    -1.45780  -0.82795  -0.51402
C    -0.76325  -1.98380  -0.97450
C    -0.69092  -3.14986  -0.01900
O    -0.22941  -2.02433  -2.08840
H     3.96766  -2.27376  -2.03708
H     3.79444  -2.74662  -0.31829
H     2.55131  -3.23517  -1.51116
H     2.17526  -0.68351  -1.75367
H     0.28628  -0.05580   2.14193
H    -0.57857  -4.07740  -0.59244
H    -1.57427  -3.20344   0.63568
H     0.19630  -3.02424   0.62298
26

C     3.25338  -2.43676  -1.22005
N     2.53226  -1.20570  -0.95590
C     2.01974  -0.93298   0.24726
O     2.20163  -1.55711   1.29264
C     1.08145   0.22819   0.27355
N     0.34360   0.53861   1.30995
C    -0.61233   1.47595   0.90398
C    -1.33155   2.26550   1.83720
N    -1.94322   2.91046   2.58654
C    -0.10364   2.01814  -0.36071
O    -0.39402   2.94156  -1.05826
O     0.92443   1.09100  -0.72239
C    -1.94179   0.22173  -0.04513
F    -3.02368   0.95558   0.06618
C    -1.45540  -0.82402  -0.51081
C    -0.76513  -1.97834  -0.97271
C    -0.69225  -3.14768  -0.01860
O    -0.22995  -2.02330  -2.08845
H     3.96754  -2.27359  -2.03709
H     3.79433  -2.74651  -0.31826
H     2.55115  -3.23498  -1.51119
H     2.17494  -0.68357  -1.75377
H     0.28483  -0.05782   2.14068
H    -0.58023  -4.07645  -0.59315
H    -1.57407  -3.20307   0.63658
H     0.19664  -3.02493   0.62230
26

C     3.25313  -2.43647  -1.22004
N     2.53155  -1.20541  -0.95604
C     2.01974  -0.93286   0.24714
O     2.20122  -1.55600   1.29272
C     1.07881   0.22818   0.27300
N     0.34261   0.53844   1.31084
C    -0.63495   1.45474   0.89182
C    -1.33604   2.26133   1.83238
N    -1.93904   2.90980   2.58444
C    -0.10476   2.01559  -0.36499
O    -0.39233   2.94175  -1.05612
O     0.92616   1.09239  -0.72284
C    -1.91728   0.23736  -0.02751
F    -3.02139   0.95312   0.06530
C    -1.45301  -0.82010  -0.50761
C    -0.76700  -1.97289  -0.97092
C    -0.69357  -3.14551  -0.01819
O    -0.23050  -2.02228  -2.08849
H     3.96743  -2.27342  -2.03710
H     3.79422  -2.74639  -0.31824
H     2.55099  -3.23479  -1.51122
H     2.17462  -0.68363  -1.75387
H     0.28337  -0.05983   2.13944
H    -0.58190  -4.07550  -0.59387
H    -1.57387  -3.20270   0.63749
H     0.19698  -3.02562   0.62161
26

C     3.25287  -2.43619  -1.22003
N     2.53084  -1.20511  -0.95617
C     2.01974  -0.93273   0.24702
O     2.20081  -1.55490   1.29280
C     1.07616   0.22817   0.27246
N     0.34161   0.53826   1.31173
C    -0.65758   1.43353   0.87966
C    -1.34052   2.25716   1.82756
N    -1.93487   2.90914   2.58234
C    -0.10588   2.01305  -0.36928
O    -0.39064   2.94195  -1.05398
O     0.92788   1.09378  -0.72328
C    -1.89278   0.25298  -0.00989
F    -3.01910   0.95066   0.06442
C    -1.45062  -0.81617  -0.50440
C    -0.76887  -1.96743  -0.96913
C    -0.69490  -3.14333  -0.01779
O    -0.23104  -2.02125  -2.08854
H     3.96731  -2.27325  -2.03711
H     3.79411  -2.74628  -0.31821
H     2.55083  -3.23460  -1.51126
H     2.17430  -0.68370  -1.75397
H     0.28192  -0.06185   2.13819
H    -0.58357  -4.07455  -0.59458
H    -1.57367  -3.20233   0.63840
H     0.19732  -3.02631   0.62093
26

C     3.25261  -2.43591  -1.22002
N     2.53012  -1.20481  -0.95630
C     2.01975  -0.93260   0.24690
O     2.20040  -1.55379   1.29289
C     1.07352   0.22816   0.27192
N     0.34061   0.53809   1.31262
C    -0.68020   1.41231   0.86749
C    -1.34501   2.25300   1.82275
N    -1.93070   2.90848   2.58024
C    -0.10700   2.01051  -0.37356
O    -0.38895   2.94215  -1.05184
O     0.92960   1.09517  -0.72373
C    -1.86827   0.26860   0.00773
F    -3.01680   0.94820   0.06354
C    -1.44822  -0.81225  -0.50120
C    -0.77074  -1.96197  -0.96734
C    -0.69622  -3.14116  -0.01738
O    -0.23158  -2.02023  -2.08858
H     3.96719  -2.27307  -2.03712
H     3.79400  -2.74617  -0.31819
H     2.55066  -3.23441  -1.51129
H     2.17398  -0.68376  -1.75407
H     0.28047  -0.06386   2.13694
H    -0.58524  -4.07359  -0.59530
H    -1.57347  -3.20196   0.63931
H     0.19766  -3.02700   0.62024
26

C     3.25236  -2.43562  -1.22002
N     2.52941  -1.20451  -0.95644
C     2.01975  -0.93247   0.24678
O     2.19999  -1.55269   1.29297
C     1.07087   0.22815   0.27138
N     0.33961   0.53792   1.31351
C    -0.70282   1.39110   0.85533
C    -1.34950   2.24883   1.81793
N    -1.92653   2.90782   2.57814
C    -0.10812   2.00797  -0.37785
O    -0.38726   2.94234  -1.04970
O     0.93132   1.09656  -0.72418
C    -1.84376   0.28422   0.02535
F    -3.01451   0.94574   0.06266
C    -1.44583  -0.80832  -0.49799
C    -0.77261  -1.95651  -0.96555
C    -0.69755  -3.13898  -0.01698
O    -0.23212  -2.01920  -2.08863
H     3.96707  -2.27290  -2.03714
H     3.79389  -2.74606  -0.31816
H     2.55050  -3.23422  -1.51132
H     2.17367  -0.68382  -1.75417
H     0.27901  -0.06587   2.13570
H    -0.58690  -4.07264  -0.59601
H    -1.57327  -3.20159   0.64022
H     0.19800  -3.02769   0.61956
26

C     3.25210  -2.43534  -1.22001
N     2.52870  -1.20421  -0.95657
C     2.01975  -0.93235   0.24666
O     2.19958  -1.55158   1.29306
C     1.06823   0.22814   0.27084
N     0.33861   0.53774   1.31440
C    -0.72544   1.36989   0.84316
C    -1.35399   2.24466   1.81312
N    -1.92236   2.90716   2.57604
C    -0.10924   2.00542  -0.38214
O    -0.38557   2.94254  -1.04756
O     0.93304   1.09795  -0.72463
C    -1.81925   0.29984   0.04297
F    -3.01221   0.94329   0.06178
C    -1.44344  -0.80440  -0.49479
C    -0.77448  -1.95105  -0.96376
C    -0.69888  -3.13680  -0.01657
O    -0.23267  -2.01818  -2.08867
H     3.96695  -2.27273  -2.03715
H     3.79378  -2.74594  -0.31813
H     2.55034  -3.23403  -1.51136
H     2.17335  -0.68388  -1.75427
H     0.27756  -0.06789   2.13445
H    -0.58857  -4.07169  -0.59673
H    -1.57307  -3.20121   0.64113
H     0.19834  -3.02838   0.61887
26

C     3.25185  -2.43506  -1.22000
N     2.52798  -1.20391  -0.95671
C     2.01975  -0.93222   0.24654
O     2.19917  -1.55048   1.29314
C     1.06558   0.22813   0.27030
N     0.33761   0.53757   1.31529
C    -0.74806   1.34868   0.83100
C    -1.35848   2.24049   1.80830
N    -1.91819   2.90650   2.57394
C    -0.11036   2.00288  -0.38642
O    -0.38388   2.94273  -1.04543
O     0.93476   1.09935  -0.72508
C    -1.79474   0.31546   0.06059
F    -3.00992   0.94083   0.06090
C    -1.44104  -0.80047  -0.49158
C    -0.77635  -1.94559  -0.96198
C    -0.70020  -3.13463  -0.01617
O    -0.23321  -2.01715  -2.08872
H     3.96684  -2.27256  -2.03716
H     3.79367  -2.74583  -0.31811
H     2.55018  -3.23384  -1.51139
H     2.17303  -0.68395  -1.75436
H     0.27610  -0.06990   2.13320
H    -0.59024  -4.07074  -0.59744
H    -1.57286  -3.20084   0.64204
H     0.19868  -3.02907   0.61819
26

C     3.25159  -2.43477  -1.21999
N     2.52727  -1.20361  -0.95684
C     2.01975  -0.93209   0.24643
O     2.19876  -1.54937   1.29323
C     1.06294   0.22812   0.26976
N     0.33661   0.53739   1.31618
C    -0.77069   1.32746   0.81884
C    -1.36297   2.23632   1.80348
N    -1.91402   2.90584   2.57184
C    -0.11147   2.00034  -0.39071
O    -0.38219   2.94293  -1.04329
O     0.93648   1.10074  -0.72553
C    -1.77023   0.33109   0.07821
F    -3.00763   0.93837   0.06002
C    -1.43865  -0.79655  -0.48838
C    -0.77822  -1.94013  -0.96019
C    -0.70153  -3.13245  -0.01576
O    -0.23375  -2.01612  -2.08876
H     3.96672  -2.27239  -2.03717
H     3.79356  -2.74572  -0.31808
H     2.55002  -3.23365  -1.51142
H     2.17271  -0.68401  -1.75446
H     0.27465  -0.07192   2.13196
H    -0.59191  -4.06978  -0.59815
H    -1.57266  -3.20047   0.64295
H     0.19902  -3.02976   0.61750
26

C     3.25133  -2.43449  -1.21998
N     2.52656  -1.20331  -0.95697
C     2.01976  -0.93196   0.24631
O     2.19835  -1.54827   1.29331
C     1.06030   0.22811   0.26922
N     0.33561   0.53722   1.31706
C    -0.79331   1.30625   0.80667
C    -1.36746   2.23215   1.79867
N    -1.90985   2.90518   2.56974
C    -0.11259   1.99780  -0.39499
O    -0.38050   2.94313  -1.04115
O     0.93820   1.10213  -0.72598
C    -1.74572   0.34671   0.09583
F    -3.00533   0.93591   0.05913
C    -1.43626  -0.79262  -0.48517
C    -0.78009  -1.93467  -0.95840
C    -0.70285  -3.13027  -0.01536
O    -0.23430  -2.01510  -2.08880
H     3.96660  -2.27221  -2.03718
H     3.79345  -2.74560  -0.31806
H     2.54986  -3.23346  -1.51146
H     2.17239  -0.68407  -1.75456
H     0.27319  -0.07393   2.13071
H    -0.59357  -4.06883  -0.59887
H    -1.57246  -3.20010   0.64386
H     0.19937  -3.03045   0.61682
26

C     3.25108  -2.43421  -1.21998
N     2.52585  -1.20302  -0.95711
C     2.01976  -0.93184   0.24619
O     2.19794  -1.54716   1.29340
C     1.05765   0.22810   0.26868
N     0.33461   0.53705   1.31795
C    -0.81593   1.28504   0.79451
C    -1.37194   2.22799   1.79385
N    -1.90568   2.90452   2.56764
C    -0.11371   1.99525  -0.39928
O    -0.37881   2.94332  -1.03901
O     0.93992   1.10352  -0.72643
C    -1.72121   0.36233   0.11345
F    -3.00304   0.93345   0.05825
C    -1.43386  -0.78870  -0.48197
C    -0.78196  -1.92921  -0.95661
C    -0.70418  -3.12810  -0.01496
O    -0.23484  -2.01407  -2.08885
H     3.96648  -2.27204  -2.03719
H     3.79333  -2.74549  -0.31803
H     2.54970  -3.23327  -1.51149
H     2.17207  -0.68414  -1.75466
H     0.27174  -0.07595   2.12946
H    -0.59524  -4.06788  -0.59958
H    -1.57226  -3.19973   0.64477
H     0.19971  -3.03114   0.61613
26

C     3.25082  -2.43392  -1.21997
N     2.52513  -1.20272  -0.95724
C     2.01976  -0.93171   0.24607
O     2.19753  -1.54606   1.29348
C     1.05501   0.22809   0.26814
N     0.33361   0.53687   1.31884
C    -0.83855   1.26382   0.78234
C    -1.37643   2.22382   1.78904
N    -1.90151   2.90386   2.56554
C    -0.11483   1.99271  -0.40357
O    -0.37712   2.94352  -1.03687
O     0.94164   1.10491  -0.72687
C    -1.69671   0.37795   0.13107
F    -3.00075   0.93099   0.05737
C    -1.43147  -0.78477  -0.47877
C    -0.78383  -1.92376  -0.95482
C    -0.70551  -3.12592  -0.01455
O    -0.23538  -2.01305  -2.08889
H     3.96636  -2.27187  -2.03720
H     3.79322  -2.74538  -0.31801
H     2.54954  -3.23308  -1.51152
H     2.17175  -0.68420  -1.75476
H     0.27028  -0.07796   2.12822
H    -0.59691  -4.06693  -0.60030
H    -1.57206  -3.19936   0.64567
H     0.20005  -3.03183   0.61545
