16

C 3.075627118 -2.296388554 0.434922527
C 1.133856065 -1.274994493 2.293273775
N 0.724701748 1.422763215 2.073073551
C -1.223459016 2.425196859 0.803635609
O -1.687817297 4.697074135 0.539413516
C -3.309418459 1.121532651 -0.300639950
C -3.189777120 0.755995537 -3.046790880
H 2.488492178 -1.941782089 -1.510922227
H 3.317028462 -4.330185716 0.680597204
H 4.910723811 -1.395614540 0.712193236
H 1.699162627 -1.696680963 4.232953751
H 1.919741155 2.651738569 2.898212335
H -0.695934826 -2.196076789 2.014206164
H -1.893013284 1.998111933 -4.074068054
H -5.040334514 0.699640900 -3.948039498
H -2.437236853 -1.188940807 -3.173464135

