16

C 2.900557296 -1.875872297 0.015285201
C 1.032054043 -0.883714662 1.925331021
N 0.901327382 1.796230375 2.219888755
C -1.219886244 2.632617526 0.977129985
O -1.943872636 4.789469119 0.710735047
C -2.569207332 0.386418965 0.093826565
C -2.711683932 -0.106771076 -2.647983419
H 2.723150355 -0.887640662 -1.783859661
H 2.632489025 -3.896614305 -0.299840161
H 4.825843417 -1.583885516 0.699993523
H 1.145562748 -1.889722515 3.729155355
H 1.722335016 2.769216776 3.630348719
H -1.128739367 -1.427583793 1.399753419
H -0.956967079 0.122522491 -3.726598669
H -3.970956679 1.422784626 -3.273267980
H -3.628828775 -1.886672441 -3.124435796

