16

C -2.436196105 -1.459032370 1.488824507
C -1.128040244 0.514177112 -0.118153236
C -0.727454475 0.070430395 -2.666322436
C 2.944686691 0.221715387 1.492162557
O 4.169543292 -1.254533956 0.137740380
C -1.303667195 3.086426789 0.701211281
N -1.436723435 5.137485560 1.413115445
H -1.576062050 -3.308454926 1.179587947
H -2.298702863 -1.013722188 3.494414256
H -4.441481609 -1.593132249 1.016203228
H -1.544092136 -1.610390947 -3.507983718
H 1.839803000 -1.063956286 -3.240328031
H -0.450022233 1.648195504 -3.940942216
H 3.239181591 2.267413648 1.359794007
H 2.004766150 -0.492461438 3.189139338
H 3.110762134 -1.301260647 -2.250394018

