9

C 0.125295248 1.226760047 -2.777412443
C -1.970104945 2.053725534 -1.368102679
H -3.589367779 3.106734013 -2.087965217
C -2.665318443 -0.563609248 -0.209003842
H -1.349998441 -2.123716020 -0.270929732
H -4.644859490 -1.026290756 -0.480231092
N -1.934828199 1.537185414 1.347806794
H -3.485685120 2.344983314 2.133200555
H -0.426073431 1.395630905 -4.786570600

