14

C 3.352409275 -1.403637448 0.351958864
N 2.654442257 -2.533193611 2.346660560
C 1.145511782 1.543523725 -1.337546582
C -1.564308502 1.228051070 -1.380356722
C -2.811640315 -0.126313943 0.812033174
N -2.948938367 2.558641646 0.708097424
H 2.196922649 -1.725902989 -1.383718242
H 5.192529673 -0.540117571 0.025975911
H 4.014936766 -2.438773994 3.700973322
H 1.911130429 1.373858464 -3.270608171
H -2.601035838 1.090166126 -3.150154137
H -1.576366391 -0.912464691 2.239882020
H -4.448632068 -1.255343572 0.310841107
H -4.637841463 3.121541831 -0.003314145

