17

C -4.069292641 -0.189719735 -0.200125927
O -1.705958801 -1.073094132 -1.086722251
C 0.461296660 0.001997441 -0.152748263
C 2.596958130 -1.743929445 -1.042810666
C 0.586735905 0.256648014 2.711559985
C 0.072818196 3.484486429 -0.812406565
C 1.747878047 2.726597991 -2.274548970
H -4.181053028 1.865117468 -0.350960503
H -5.485369022 -1.067954077 -1.404771926
H -4.402089417 -0.763533258 1.756918535
H 2.333051659 -3.550929200 -0.082268452
H 4.451066167 -1.001795767 -0.547048425
H 2.490694616 -2.086730867 -3.068482687
H 2.359332288 1.150261325 3.250354389
H 0.518805354 -1.639655681 3.537109330
H -0.949674891 1.392680967 3.458006736
H 3.158515098 2.307707390 -3.657557053

