14

O 4.979362368 -1.035004132 -1.432052712
C 4.010534649 0.306664737 0.118176839
C 1.240714956 0.248938592 0.718101237
C -0.394829248 -1.691474182 -0.636379615
C -3.006209899 -0.473516045 -0.339691329
C -2.242004258 2.287233511 -0.409761485
H 5.147756600 1.685250350 1.209788794
H 0.959110860 0.323912191 2.759778841
H 0.157456327 -1.737615908 -2.620535506
H -0.230295046 -3.599428737 0.120296337
H -4.281972472 -0.919544001 -1.899937959
H -3.892842317 -1.093084789 1.424824207
H 0.501289595 2.175431947 -0.216927331
H -2.646040969 3.201003832 1.418034478

