10

C 3.736052667 -0.714460056 -1.046596355
O 1.208640748 -1.565035045 -1.510073116
C -0.366743174 0.079938609 -2.420603313
C -2.863455528 -1.191472000 -2.761245647
H -2.921352164 -3.186419474 -2.217820960
H -3.407388721 -0.966458172 -4.742499995
H -4.259078742 -0.109793069 -1.686983701
H 4.145445901 -1.021571581 0.947403194
H 3.877079753 1.278886932 -1.536947101
H 5.004014129 -1.854616128 -2.199919849

