18

C -2.964474901 2.716690119 -0.852646601
C -0.963694089 -0.294711255 0.820291787
C -2.055854688 -2.669960007 0.156039543
C 1.639393878 0.423433465 -0.110430870
C 3.604547816 -1.001644268 1.437281811
O 1.788541892 -0.196290218 -2.704036399
H -2.733074725 4.158196526 0.596089842
H -2.029424846 3.215335855 -2.613987378
H -4.982740197 2.362385632 -1.164106782
H -1.373191919 0.391919712 2.705467564
H -1.383134128 -3.649691521 -1.500015786
H -3.414092241 -3.543136763 1.400319429
H -2.901976896 -0.166958380 -0.627667827
H 1.902685602 2.461976429 0.147924397
H 5.505160899 -0.467299696 0.832508564
H 3.364391386 -3.032940567 1.193710362
H 3.439110495 -0.549738507 3.443756822
H 3.511802401 -0.043831517 -3.238735030

