11

C -3.595232751 0.523155881 -0.862315517
C -1.211176401 0.016407339 -0.237758160
C 1.102748716 1.461335681 -0.552128463
C 2.978063808 0.045399404 0.342525011
N 2.113868184 -2.323775107 1.099039940
O -0.548852585 -2.228157101 0.902013655
H 2.505747569 -2.774328504 2.921451185
H -4.040023107 2.291735065 -1.775777699
H -5.096977561 -0.803945108 -0.475866656
H 1.227874286 3.308644541 -1.394999642
H 4.978350363 0.431454596 0.461126849

