12

O -3.347000274 1.855178756 2.906027373
C -1.951977464 -0.109642968 1.941543813
C 2.605452675 -0.131998447 -3.456785293
C 1.313365553 -1.063947574 -1.528048550
C 0.351183396 0.502401340 0.567843898
O 0.404484236 -0.601318487 3.050112262
H -4.240073975 1.279821440 4.376712512
H -3.036491986 -1.795485596 1.468853900
H 3.256099912 -1.325924257 -4.985159878
H 3.051520486 1.865269988 -3.578685289
H 0.900416345 -3.071734603 -1.416049037
H 0.875956070 2.489486476 0.538001947

