8

N 4.009546152 -0.205739529 0.747336132
C 2.008520224 -1.204482557 0.360921892
C -0.180017824 -2.390912390 0.161874412
C -2.468423419 -1.260234296 1.224238510
O -2.574385313 0.768171459 2.259513818
H -4.181911153 -2.440665817 1.007725425
H -0.251687596 -4.191221776 -0.801738739
H 4.700795383 1.097086757 -0.473119467

