10

N 4.367317171 -1.222320230 1.563843705
C 2.329756771 -1.354823763 0.536865806
C 0.049766391 -1.659382947 -0.390427716
C -2.025995220 0.124642612 0.400969157
C -2.357520211 2.263442747 -1.551115832
O -1.550672824 1.904024151 2.065489627
O -2.333832551 4.194385858 -2.478394880
H 5.723022529 -0.165896127 0.713742433
H -0.338037195 -3.240038223 -1.628039950
H -3.841075216 -0.908454843 0.507816105

