17

C 4.600302299 -0.644467794 1.508605328
O 2.001269326 -0.275261495 1.135188284
C 1.231144117 -0.712207182 -1.461345281
C -1.497548616 -0.342411401 -1.843373486
C -3.689902569 -1.363088121 -0.423038267
C -2.872224632 1.332173562 -0.217866109
O -2.217875176 2.623859742 1.916327251
H 5.143937652 -2.600060191 1.084519303
H 5.021755029 -0.251031993 3.485560549
H 5.731506171 0.620195188 0.313777836
H 2.338135665 0.581984019 -2.648267293
H 1.765183554 -2.644795923 -1.985633448
H -3.400575314 2.809109480 -2.020221124
H -5.391414655 -1.934891203 -1.434560473
H -3.504158837 -2.250557120 1.431286485
H -4.772052344 2.803623020 -1.035825483
H -0.421613375 2.297825785 2.121334795

