8

O -0.066823796 -1.992083575 3.285509928
C -0.171649077 -0.104675143 -1.348234004
C 0.228713950 2.589179393 -1.597103262
N 0.494573206 4.733944109 -1.777057119
C 0.484085850 -1.412031820 0.944140185
N 2.127239849 -1.784370907 -0.685366494
H -1.600984155 -1.155925666 3.790012265
H -1.531402644 -0.885926548 -2.670677650

