16

C -3.333911577 0.058314643 -1.382049463
C -0.837992795 -0.796659893 -2.289236564
O -0.151677752 3.594844375 1.705242160
C 0.527665032 -2.882200855 -1.210648298
C 1.638112285 -0.581760578 0.191266060
O 0.676591022 0.059771886 2.234284386
N 3.928763913 0.461044495 -0.583372949
H -3.017391012 1.479946384 0.112706120
H -4.449807685 -1.487867984 -0.598995277
H -4.381001207 0.977578152 -2.900007367
H -0.017818927 0.137105167 -3.914774101
H -0.052895551 3.997886315 3.474536454
H -0.489105605 -4.147685000 0.037003634
H 1.963715176 -3.805876535 -2.347663475
H 3.944045732 2.317053899 -0.107549888
H 4.388267639 0.182385084 -2.408875635

