18

C -4.692440621 -0.098464199 0.381650657
C -2.349360128 0.268807022 -1.237811430
C 0.075698574 0.563912133 0.164773800
O 0.354732604 -2.558597162 2.233239236
C 2.438218924 0.047101046 -0.952158992
C 4.814276763 1.352398280 -0.052295336
H -6.394721712 -0.097069543 -0.781746798
H -4.610955063 -1.887032566 1.400640116
H -4.880792855 1.406023133 1.780489108
H -2.147251897 -1.255805402 -2.617048810
H -2.535734046 2.013049141 -2.347635488
H 0.008291646 1.709900316 1.865283254
H -0.810600969 -3.957543970 2.171313213
H 1.980187976 -2.009323055 0.425864012
H 2.369322137 -0.470268929 -2.942356110
H 6.485639818 0.243484238 -0.529889089
H 5.051969387 3.226068555 -0.892461940
H 4.794205188 1.573651194 1.999307015

