11

C -0.460877179 -2.481412942 0.110365864
O -2.178249774 -0.667850169 -0.875107961
C -1.205811299 1.719538013 -0.167640080
C 1.650970945 1.275617272 -0.017951850
C 2.064662645 -1.434430668 0.507538296
H -0.936047660 -2.990966272 2.098649218
H -0.557144949 -4.230129612 -0.975951136
H -1.953875958 2.303003427 1.679963841
H -1.778735857 3.105706814 -1.578343139
H 2.763138718 2.578942067 1.122789621
H 2.491178045 1.332149544 -1.934438708

