11

C -0.384141089 -2.458924672 0.099834987
O -2.285363627 -0.624412755 -0.543895493
C -1.314663001 1.800376075 -0.063053830
C 1.486778066 1.362673553 0.279576609
C 2.103094534 -1.184821619 0.523571337
H -0.863144634 -3.395553612 1.890341004
H -0.338894979 -3.904223212 -1.370601143
H -2.095857771 2.618328646 1.681076040
H -1.774184641 3.068520217 -1.626873176
H 2.811869293 2.893025963 0.624305399
H 2.606933975 0.226631131 -1.503632060

