16

C 5.023820783 -0.174855338 0.090862605
C 2.291596511 0.501242371 0.106478640
C 0.176987856 -1.383271019 -0.147375980
C -2.092400669 0.305972832 -0.008504448
C -4.762708083 -0.573693035 -0.161735328
C -1.196930436 2.650613332 0.271085786
N 1.481338753 2.768853930 0.340989986
H 6.163297989 1.521498117 0.320478880
H 5.463319754 -1.496647311 1.615539638
H 5.543228827 -1.098510174 -1.681999454
H 0.295390857 -2.428522135 -1.929993467
H -6.074603316 1.002787647 0.033779837
H -5.188937946 -1.945373135 1.323786750
H -5.146265341 -1.502568466 -1.967565928
H -2.269292054 4.383221957 0.438642718
H 0.228179819 -2.791883266 1.368506551

