16

C 4.867068303 -0.453854541 -0.211055196
C 2.133728072 0.043802869 0.317364290
C 0.025982789 -1.454975033 -0.243896784
C -2.099962370 0.085647906 -0.155585366
C -4.788839632 -0.691350312 -0.562696265
C -1.244856820 2.492563574 0.494042042
N 1.284278623 2.605256824 0.728120074
H 6.071217134 0.790897702 0.903381268
H 5.349090138 -2.408261776 0.229654296
H 5.282155547 -0.118529216 -2.204196413
H 0.076994245 -3.450121873 -0.681256283
H -6.036925540 0.947592243 -0.593214076
H -5.436417916 -1.952473233 0.937231328
H -5.010176771 -1.693831011 -2.351570597
H -2.381232646 4.142292591 0.901046814
H 1.926264981 1.085789860 2.485138122

