11

O -4.042534931 1.585037305 0.211605995
C -1.824208810 2.073888779 0.305890006
C 0.068139858 -0.022859998 0.122190560
C 0.257317562 -1.666632183 2.428544887
O -1.176912076 -2.399827834 -0.332687739
C 2.338054766 0.325628441 -1.510906939
O 3.357386417 2.333489755 -1.769153378
H -1.094525592 4.002775679 0.555266996
H 1.987377949 -2.801454464 2.168303125
H -2.967796359 -2.030865895 -0.038672300
H 3.079629747 -1.445821805 -2.345376812

