11

O -4.117541601 2.036699083 0.101477934
C -1.870486842 2.244790810 0.213809415
C -0.128922993 -0.001636352 -0.039584887
C -0.001062952 -1.821994240 2.103719769
O -1.287669113 -2.294148227 -0.833517772
C 2.310364023 0.376613932 -1.431972455
O 3.316605182 2.391228031 -1.650930524
H -0.915616867 4.069813204 0.538174309
H 1.766586581 -2.902903580 2.048815666
H -2.223449113 -2.738375463 0.978935883
H 3.134310900 -1.397091796 -2.182620654

