15

C -2.291311181 2.751648389 -0.564804878
C -1.081911897 0.166513010 -0.420076348
C -0.751831866 -1.036008011 2.201429098
O 1.953219014 -1.190669528 1.919895545
C 1.828675650 0.033844560 -0.531278623
C 2.804198725 -1.528607853 -2.689861885
O 3.610830910 -3.673981381 -1.843801471
H -1.434236120 4.047195506 0.795364712
H -2.069578749 3.559835668 -2.448888507
H -4.311624713 2.640939294 -0.158965500
H -1.603612443 -2.896253823 2.473504514
H -1.252101217 0.194557377 3.783272614
H 2.796750917 1.861408333 -0.518818808
H -1.948040597 -1.117312552 -1.782445163
H 3.396304703 -3.742608996 0.013955854

