15

C -2.403318121 2.535271516 -0.656394253
C -0.612094499 0.410757522 -0.123200770
C -0.314155687 -1.058990539 2.313030710
O 2.403553996 -0.941836175 2.135622995
C 2.201170432 0.459930747 -0.204782798
C 1.648299590 -1.257098485 -2.411531891
O 1.988299304 -3.721684304 -1.884739175
H -2.137800734 4.061638456 0.710840721
H -2.059813041 3.309755171 -2.537534634
H -4.366888525 1.911018803 -0.563614955
H -1.032405853 -2.998787244 2.334885090
H -0.975932012 -0.048242705 3.987826755
H 3.478830913 2.055108190 -0.359263109
H -0.700671424 -0.818780516 -2.439368804
H 2.715357994 -3.870640511 -0.198366271

