13

C 1.038730540 3.516546332 2.508850159
O 0.218510506 -5.163685895 0.981338556
C -0.454978153 -3.967943662 -0.812078489
C -1.406202676 -1.287525532 -0.736013403
O -1.514779744 -0.199368147 1.735073905
C 0.187882694 1.660910489 1.083566333
C 0.529304029 0.727655504 -1.585519865
H 2.380225894 4.852479485 1.745386368
H 0.422054985 3.717201175 4.446474813
H -0.394130484 -4.770238888 -2.754782216
H -3.237296665 -1.191712600 -1.696485282
H -0.105580359 2.007454135 -3.063092829
H 2.409325692 0.014654448 -2.028254728

