10

C 3.714345458 -0.107601327 -0.308089212
C 2.916318897 -0.645928250 1.916113523
C 0.386542742 -0.300694600 1.039879304
C -0.366856936 1.774362691 -0.563072736
N -2.712901936 1.122122359 -1.604350003
N -3.334880723 -1.037452499 -0.843137537
N -1.513860222 -1.945676021 0.767665428
H 1.981705237 1.334464534 -1.739267586
H -0.003612608 3.742152041 -0.139501321
H -1.641134939 -3.727440618 1.417512479

