12

O -2.671651993 1.358630030 0.055567378
C -1.762736926 -2.108034638 0.301689201
C 0.616006497 -1.287504764 -0.733394678
C -0.052924520 1.801275793 -0.525999446
C 1.023444035 3.904940023 -0.593876992
C 2.842946727 -1.878996751 0.744896798
N 4.607344590 -2.369684567 1.905166340
H -3.305224533 2.741505889 1.099284451
H -1.921897087 -2.508948652 2.300353180
H -3.244326597 -2.814110433 -0.910637495
H 0.892058842 -1.732992410 -2.720167442
H 2.831932062 4.750159546 -0.937099576

