10

N 4.384455665 -0.120531154 -2.998383107
C 2.601714419 -0.080475971 -1.762718369
C 0.359027347 0.026985894 -0.181714704
C -0.012746316 2.500250035 1.178051449
O -1.763655389 2.878888676 2.561572857
C -1.937131265 -1.524890194 -0.865054221
C -0.664204075 -2.361877107 0.998492658
H 1.443658427 3.957392546 0.814991748
H -3.496863058 -1.554428503 -2.163900573
H -0.295772960 -3.660283644 2.514669798

