13

C 2.126053932 1.706602838 -0.146499412
C 1.343855811 -0.864904952 -0.145038559
C -0.942321607 -1.684154838 1.347137453
C -2.821452661 -0.854577504 -0.609903324
C -2.653303810 1.673645580 -1.110829431
N -1.904658759 3.760258811 -1.198514386
H 3.283390354 2.444944781 -1.660176462
H 3.372472856 -0.444046371 0.944106227
H 1.823591228 2.857654239 1.512908934
H 1.817399843 -1.981511256 -1.796948717
H -1.075437449 -0.697516848 3.154185924
H -0.990511211 -3.712811435 1.671725939
H -3.625555505 -2.176393647 -1.936718473

