15

C 2.768977291 1.135970007 -0.597243690
C 0.465325367 -0.091461516 0.567382786
O 1.003801163 -1.179270454 2.947290242
C -1.943829021 1.508756147 0.838480099
C -3.715562480 -0.190632038 -0.762904622
O -2.207278462 -0.569431362 -2.963403011
C -0.908814155 -1.975486016 -1.161187155
H 2.309041139 1.909298472 -2.450119172
H 3.441385537 2.662579380 0.614461740
H 4.297412215 -0.237743911 -0.834028244
H 2.527416227 -2.155197477 2.814119163
H -2.536409056 1.654656931 2.801867899
H -1.856621562 3.382745219 -0.015055902
H -2.739459750 -2.563151874 0.172799108
H -0.231321035 -3.801343574 -1.824227216

