14

C -3.003794735 -1.934912122 -0.331382562
C -1.204144919 0.016925162 -1.470379419
C 0.908447700 0.744776441 0.252265852
O 0.282495574 1.874755336 2.530120614
C 3.342465177 0.289482874 -0.155020054
O 5.221344765 0.952817071 1.461003052
H -4.543887247 -2.363110985 -1.634107728
H -3.832237270 -1.254316430 1.430367719
H -2.000147773 -3.686866478 0.087137634
H -2.273403626 1.715801363 -1.999247678
H -0.388339474 -0.706380419 -3.222342997
H -1.131983214 2.982557501 2.289906283
H 4.448289801 1.795897745 2.877527506
H 4.004432516 -0.683830809 -1.823758923

