13

C 1.198149858 0.298158890 0.737197827
C 3.068456987 -1.202976521 -0.794132270
H 2.349197026 -3.107824914 -1.147789280
H 4.847669225 -1.402199896 0.238267951
H 3.460541086 -0.305164804 -2.603395161
C 0.468118553 -0.761002046 3.275160068
H 2.140010674 -0.987241191 4.468768082
H -0.385524746 -2.630723737 3.058387997
H -0.870595937 0.458722362 4.251202364
C 0.256891391 2.416217202 -0.094260937
C -0.682986460 4.533092621 -0.922649936
H -2.411282296 4.569564902 -2.023737338
H 0.231817296 6.326356390 -0.537656279

