17

C -3.280935033 -0.165062267 -2.115848787
O -1.752614740 -1.534039360 -0.809777710
C 1.102009682 -0.127021570 0.733421436
C 3.086932555 -1.759606009 -0.484204223
C 0.484074644 -0.751949237 3.439118527
C 0.895394246 2.348411826 -0.033166224
C -0.531354363 3.738219880 -1.310154303
H -3.296883962 -0.452289564 -4.171145591
H -5.136745279 0.252777401 -1.285106739
H -2.350668461 2.171810702 -2.099933438
H 2.528400869 -3.735749555 -0.332663305
H 4.893860708 -1.510968790 0.482620594
H 3.324597590 -1.277892332 -2.469942210
H 2.129745531 -0.404976037 4.636114858
H -0.024750159 -2.742196735 3.581214593
H -1.083318533 0.393479586 4.119868212
H -0.875794158 5.615159267 -2.000303694

