15

C -2.750012151 -2.421095681 0.630935466
N -0.654622181 -0.758245786 0.189137226
C 1.871684097 -1.635031767 -0.285482267
C 3.284685856 0.773874274 -0.750425985
C 1.723051165 2.728241013 -0.587884878
C -0.863789446 1.816407151 -0.010171356
N -2.935741880 3.016427233 0.266647273
H -4.398000938 -1.261960693 1.046116818
H -3.161797401 -3.590781105 -1.026773676
H -2.380880628 -3.668609929 2.237472921
H 2.646503517 -2.680656840 1.330973983
H 5.286764362 0.828285706 -1.152719198
H 2.177067486 4.703886635 -0.834334871
H -2.654589618 4.897361066 0.053406117
H 1.959603359 -2.897979218 -1.931347286

