9

C -0.745544294 0.051121627 3.895213810
H -1.004533659 -0.005793428 5.933418608
C 1.532120759 -0.064559394 2.511273431
C 0.538363906 0.099498597 0.118478534
H 1.595836692 0.084678647 -1.642072640
C -2.258357456 0.305753378 0.067701026
H -2.973896093 2.071560164 -0.729709258
H -3.212153424 -1.277393217 -0.854480863
O -2.913247336 0.255532319 2.688035559

