12

C 3.370328868 -0.067004794 -0.343536600
C 0.786718705 0.311418702 0.720257812
N -0.381909114 -2.039649909 1.508342278
N -2.603288618 -2.397027922 0.989519728
C -4.066358198 -0.734092213 -0.577704092
O -3.850958560 -0.701384002 -2.825021201
N -0.421739911 2.310268252 1.152248920
H 3.243352972 -1.185753519 -2.073404499
H 4.530252268 -1.125080404 0.991386173
H 4.266757777 1.734680880 -0.768836869
H -5.596461599 0.185062939 0.490032686
H 0.572335191 3.879653994 0.667279586

