18

C -4.747164954 -0.169507129 0.596470263
C -3.558035345 -0.225476509 -1.686361868
N 0.519277880 -1.101154600 -1.160520006
C 1.095079943 -1.811566428 1.118592407
C 1.646501837 0.807927120 0.549361658
C 4.235627241 1.786857919 -0.148591584
O 5.781297866 -0.097406160 -1.204392039
H -5.075296488 1.611783203 1.553582832
H -2.620792433 -1.085503699 2.494978908
H -5.941938173 -1.730367826 1.174863273
H -3.689556447 -1.860470972 -2.901652884
H -2.886770194 1.490890903 -2.565200243
H -1.132823481 -1.591013866 2.897383463
H 1.816169688 -3.564987307 1.879599819
H 0.359299108 2.221052184 1.334296972
H 4.009125310 3.386965053 -1.454566966
H 5.198310345 2.491923864 1.536390312
H 4.776412566 -0.992643899 -2.428100235

