8

N 3.303627072 -0.634822424 -0.125415964
C 1.172867798 -0.790202396 0.853505840
O -0.017999906 -1.574412508 2.948258103
C -1.499375244 -0.392937764 0.848905850
O -2.436912746 1.943929838 1.276371197
H -4.166021768 1.824983182 1.815059304
H -2.768190787 -1.748706692 -0.028627442
H 4.662996155 -1.334324165 1.041432735

