16

C 3.727309055 0.080091185 -0.005458342
C 0.958031241 -0.484376433 0.142306865
C -0.710341115 1.113709525 2.032455608
C -2.063183651 2.118764691 -0.319098095
N -0.858711998 0.219769706 -1.993249158
C -1.963419510 -2.296627831 -1.414255933
C -0.197393610 -2.964318885 0.702223929
H 4.058984657 2.099046647 -0.273773524
H 4.580614792 -0.928000261 -1.587200587
H 4.649257450 -0.531333350 1.734937845
H 0.418856945 2.422086181 3.145620929
H -4.125776384 2.085629988 -0.327183817
H -1.432268273 4.007520895 -0.845158636
H -1.350431170 -3.639221550 -2.885137906
H -4.012448469 -2.470960376 -1.224320013
H -1.862145288 -0.015255929 3.323601666

