16

C 3.828985713 0.130606607 -0.135482044
C 1.051759616 -0.251314129 0.086109453
C -0.741521709 1.042388029 1.896046238
C -2.061724688 2.139712759 -0.399459757
N -0.835721061 0.241159648 -2.065883181
C -1.987473153 -2.205894407 -1.244090763
C -0.419189253 -2.410083151 1.176848808
H 4.286866693 2.078652741 -0.636253023
H 4.595588094 -1.108974986 -1.593491618
H 4.736128348 -0.339928641 1.654728590
H -0.076440442 1.976341873 3.594924046
H -4.123774163 2.189221335 -0.465419967
H -1.310926955 4.007124941 -0.837213264
H -1.300944534 -3.707958751 -2.482098894
H -4.051245529 -2.270694307 -1.189434932
H -1.739419161 -0.833236694 2.828846252

