16

C -4.432528370 -0.592647838 0.730822345
C -1.884019208 -0.527356856 -0.548886260
C -0.643992887 1.971872822 -0.486457267
C 1.756997015 2.567502175 0.028082766
C 3.944829250 0.999177419 0.671930939
C 4.592186889 -1.236062394 -0.274723376
N -0.869592172 -2.411306465 -1.638769815
H -4.241323651 -0.101846922 2.726700471
H -5.700974679 0.798412614 -0.117203554
H -5.300966901 -2.454529585 0.582034607
H -1.940198631 3.546696988 -0.731341037
H 2.148106715 4.583449627 0.125042724
H 3.455737270 -2.171915469 -1.690784281
H 5.210538139 1.877936671 2.032999433
H 6.305781544 -2.155539877 0.369281643
H -1.996088226 -3.964805431 -1.480173378

