16

C -4.666105908 -0.665094231 0.503550256
C -2.002530831 0.152968568 0.130169551
C -1.039352997 2.564585666 -0.267856017
C 1.579313967 2.371435039 -0.305970772
C 2.292118491 -0.224982156 -0.028321892
C 4.528426585 -1.592431255 -1.225882911
N -0.057477267 -1.472400368 0.292814443
H -5.001199571 -1.206220727 2.468791858
H -5.957972216 0.863568613 0.029909716
H -5.125329670 -2.289626622 -0.683908136
H -2.159468580 4.263268360 -0.390696265
H 2.931665079 3.891474911 -0.445014232
H 5.847757587 -0.270484721 -2.089108652
H 3.514101102 -0.197521167 1.714890874
H 5.481898842 -2.886865248 0.066026672
H -0.204502741 -3.362797855 0.223296048

