10

O 4.197701723 0.774079876 0.408595128
C 1.835763275 0.655874578 0.193803395
C 1.726810813 3.225129890 0.757972701
C -2.320419331 -1.091036250 -0.692836998
N 0.405643205 -1.256245803 -0.532201282
H 1.663207356 3.497364081 2.809303045
H -2.870177095 0.880848023 -0.479482742
H -3.235515617 -2.200176720 0.785762749
H -2.973808504 -1.746553519 -2.533193649
H 1.295436511 -2.864230958 -1.025095731

