15

C -2.019688732 1.661013479 -2.692828075
C -1.206688699 0.932650008 -0.070534954
C -3.132389672 -0.377818783 1.555163928
C 1.438611517 0.701976375 0.510451649
O 0.270076105 2.874437672 1.249327988
C 3.625931787 -0.360732106 0.566987738
C 5.809936476 -1.496241871 0.592159684
H -3.703092952 2.852393166 -2.612500107
H -2.481749540 -0.028236571 -3.782991026
H -0.519317356 2.681257433 -3.662795959
H 7.164507356 -1.241597326 -0.926641964
H -4.839123827 0.773100601 1.704275281
H -3.652312345 -2.188824209 0.715537011
H -2.383077359 -0.715510253 3.441359780
H 6.356961148 -2.726580454 2.139174112

