15

C -1.079327110 1.353341291 -2.664369007
C -0.482492943 0.453064163 -0.076523987
C -2.536146290 -0.755302518 1.402813830
C 1.627874127 1.827938921 1.399359392
O 0.496127450 3.737420469 1.959331692
C 4.099746805 0.734521559 1.744078980
C 3.951959772 -1.453528618 0.552566596
H -2.670913507 2.672993264 -2.632941973
H -1.678364887 -0.275542535 -3.784442260
H 0.538678885 2.242163316 -3.568438211
H 2.020041733 -1.925952836 -0.387440097
H -4.040534921 0.616170695 1.768159476
H -3.368144949 -2.270687390 0.275372592
H -1.859892980 -1.510648349 3.191983848
H 5.356956746 -2.922732382 0.284264244

