19

C 3.970429559 -0.287133737 -2.207712286
O 1.331335412 -0.532469529 -2.124731105
C 0.263573179 -0.336119841 0.348043616
C 0.066438254 2.807701219 0.826177263
C -1.410822187 3.659268502 -1.229307908
C -2.261466566 -1.157881344 0.749368816
C -2.833538046 -3.727736058 1.717997036
H 4.900709756 -1.565804881 -0.864641958
H 4.613337063 1.647557589 -1.820511674
H 4.554129638 -0.787112524 -4.117346732
H 1.608106892 -1.305234099 1.620581163
H -0.672455848 3.184452760 2.701873967
H 2.067789046 3.308377485 0.747391161
H -0.662148885 3.646760386 -3.126802394
H -3.286039542 4.430124997 -0.964270172
H -3.784241174 0.173324338 0.479109011
H -4.586121794 -3.802292462 2.803053173
H -2.993371100 -5.109607773 0.178247812
H -1.278559273 -4.396895788 2.911173456

