14

O -0.219965293 3.894920695 2.277837887
C -0.207011390 1.809197581 1.251526476
C -2.370176312 0.265771592 0.023743823
C -0.840593719 -2.148801340 -0.590229782
C 1.775427722 -1.172236006 -0.120590567
C 2.052340081 1.295326170 -1.095556400
H -3.922629862 -0.061417214 1.338558323
H -3.112974588 1.249411646 -1.630469684
H -1.321984556 -3.755210446 0.601051715
H -1.054813527 -2.709232126 -2.568022889
H 3.277984925 -2.274854671 0.733721525
H 0.553706157 0.035456232 2.582749392
H 3.777136787 2.321708427 -0.697658388
H 1.156564866 1.765212202 -2.878582408

