15

C -4.924173086 -0.187188824 0.288605569
C -1.638247646 -0.521850477 0.147401831
C -0.225529024 1.446253834 -0.477893180
N 2.430117026 1.372763613 -0.200591537
C 3.824897857 -0.676858626 -0.686685939
N 6.250420448 -0.367101296 -0.065761827
C -2.713087621 -2.562432285 1.102357751
H -6.304963954 -1.662273227 -0.097676447
H -5.427821457 0.899034690 1.946933690
H -4.893464149 0.972542637 -1.429791314
H -1.045195898 3.123009619 -1.309571379
H 3.206182022 2.952793257 0.574932922
H 7.462576654 -1.782599232 -0.393835138
H 6.986740743 1.217843053 0.726188377
H -2.954691959 -4.169830077 -0.162436190

