12

N 3.478782952 0.255288261 -1.187857162
C 2.250912672 0.850010168 0.965813662
O 3.288364756 1.352770556 2.945129170
N -1.566261779 -0.271235698 -1.514152865
C -3.447083855 -1.710878249 -1.325564188
C -0.621590505 0.922114256 0.754585670
H 2.488304282 -0.152097914 -2.755805957
H 5.374919425 0.219134758 -1.182861558
H -4.395913150 -2.103281315 0.474039480
H -4.192508151 -2.619477032 -3.012562157
H -1.129048488 2.925938718 0.692531164
H -1.398538060 0.129992748 2.502569692

