12

N 3.379227852 1.332431831 -0.916226455
C 1.828898392 -0.189640442 0.493799817
O 2.510062211 -1.569913770 2.163354027
N -0.625125389 -1.173840723 -1.886748030
C -2.873164450 -1.420194662 -0.730711172
C -1.131122179 0.763871255 0.447096445
H 2.718242529 1.772956281 -2.644749322
H 5.201437029 0.785076854 -0.867425242
H -4.539233910 -0.518349041 -1.561249016
H -3.281663674 -2.988091980 0.560839741
H -1.621205075 2.660478855 -0.141380295
H -1.436013257 0.343494856 2.439260730

