8

C -3.057146012 -0.077300797 0.148298658
N -0.762285491 -0.028981407 1.688010257
N 0.725299809 -1.720537508 1.198318969
C 2.393834889 -3.117162712 0.611072309
H 2.725047300 -4.990200363 1.349492052
H -4.332143057 -1.581643073 0.767517519
H -2.611927614 -0.362337693 -1.851440538
H -4.008926360 1.728246608 0.384262069

