11

C -3.405658998 -0.101760788 0.211494746
N -1.056171824 0.014111265 1.641773270
N 1.272877377 3.114062824 -0.449753400
C 3.088411209 1.925983601 -0.924482064
C 2.645333682 -1.801927200 0.183305192
N 0.551325235 -1.566231317 1.097141426
H -4.718582298 -1.398716620 1.135902960
H -3.086523959 -0.702811048 -1.738703427
H -4.207595800 1.788947182 0.239221280
H 4.944185815 1.903657469 -1.744654137
H 3.862540332 -3.438263199 0.323218303

