8

O -2.381591750 -2.909108855 -2.466023523
C -0.989436675 -1.534422842 -0.668511593
C -2.088366614 1.059630438 -0.154392930
O -0.968207907 2.701659445 0.929904671
H -4.053561143 1.326956690 -0.845882761
H 1.009710110 -1.327233648 -1.164261853
H -1.071837767 -2.595799142 1.103237796
H -2.021918495 -2.267869846 -4.121378141

