15

C 2.851676601 -0.584665181 -1.360146781
C 1.454628098 0.948510158 0.235698151
C -0.918369480 2.306755629 -0.623229352
N -2.672755990 1.557606305 1.357858719
C -1.717300162 -0.841510898 2.187422712
C -1.549923188 -2.871219657 0.619532008
N -0.638894841 -4.154558047 -0.986934526
H 2.552097317 -0.393698265 -3.384756114
H 4.743022277 -1.142062257 -0.801899555
H 1.354694959 -2.848254231 -1.308808459
H 2.238658762 1.569955003 2.023008017
H -1.450327384 1.618319615 -2.507967884
H -0.693226432 4.360004007 -0.739500099
H -4.528416456 1.607175900 0.911269344
H -1.589961024 -1.177711525 4.205672342

