15

C 3.948883865 0.251378380 -0.519768868
C 1.154052456 0.313284031 -0.392376553
O -0.038236284 2.262976495 -1.328543871
C -2.651311340 1.472362422 0.191411814
C -2.965187630 -1.147870274 -0.920402202
C -0.507981210 -1.645289956 0.578019279
C -1.493852671 0.371312834 2.483593951
H 4.771821949 2.016588920 0.146168388
H 4.714314257 -1.337389357 0.538553993
H 4.465470661 0.030893658 -2.510210120
H -3.896415109 3.084960740 -0.023910100
H -4.527245733 -2.167386683 -0.064122943
H -2.927215190 -1.344369061 -2.974480453
H 0.244742531 -3.491806340 1.064780528
H -0.319145206 1.441292452 3.786028761

