17

C -4.059587612 -0.443218671 0.431111290
C -1.856843681 1.009936348 -0.665528055
C -0.099996313 2.470002663 1.035491417
C 1.594753690 1.035502793 -0.661472778
C 0.781166614 -1.526143744 -0.903726937
C 4.925379129 -2.170730535 0.064308155
O 5.186143419 0.103274326 0.368967533
H -5.617006286 0.864128973 0.805735151
H -3.571481181 -1.357757336 2.210989109
H -4.737922530 -1.888838482 -0.873335984
H -2.336883986 1.983779211 -2.404979549
H -0.033204869 4.510113041 0.863270622
H -0.132544823 1.845142364 2.993750406
H 2.172513189 1.984922080 -2.380292772
H 0.765793900 -2.508503338 -2.689067860
H 0.205324866 -2.585892139 0.737267747
H 6.710510726 -3.238620097 0.436812650

