11

O -3.552882307 -0.843473700 -1.538536001
C -2.022396917 0.811675467 -0.294103670
C 1.668497947 1.402219908 0.769273282
C 2.236723399 -1.239253347 1.314413084
O 0.867223381 -0.999213513 -0.975999456
H -3.259133206 -0.746782291 -3.327788506
H -1.929137856 2.652456873 -1.181538844
H -2.511171896 0.787450369 1.685869160
H 3.192410662 2.301297609 -0.304442872
H 1.245951349 -2.249356029 2.811436168
H 4.127901589 -1.949397874 0.935148906

