14

N -5.707212173 0.041108592 -0.293020442
C -3.266686687 -0.470118695 -0.695027171
C 2.852550334 -2.356725789 2.003219145
C 2.187276712 -0.305050835 0.522660055
N 4.867956304 -0.925133698 0.350013221
C 0.866056815 1.504717406 -0.600745201
N -1.802153892 1.574372106 -0.474929655
H -6.400689089 1.764557223 0.188196237
H -6.968845150 -1.361247546 -0.438123837
H 2.499889702 -4.241289182 1.268103154
H 6.155591138 0.098155776 1.311884725
H 5.458032093 -1.564703436 -1.352016631
H 1.793279435 2.954615009 -1.706449052
H -2.553462833 3.292878990 -0.045429545

