16

C 3.309303054 2.464642473 -0.342816369
C 0.749478080 1.790046662 -1.222518840
N 2.968731963 0.933933094 -2.484949867
C 1.449098722 -2.047962379 1.066383545
C -0.428780237 -0.333055669 0.249497800
C -2.966068413 -0.201130014 1.600303570
C -2.879944995 -1.390297229 -0.921472505
H 3.665023058 1.515133671 1.518774852
H 4.289140676 4.262785346 -0.518518833
H -0.541503931 3.077517770 -2.177723617
H 3.395423977 -1.806782152 0.522889486
H 0.912303365 -3.740674332 2.096168783
H -3.758459225 1.677743602 1.755486066
H -3.230904043 -1.385149804 3.246001783
H -3.041630227 -3.421998912 -1.063272167
H -3.559776538 -0.346672204 -2.545352808

