10

C -3.976119146 -1.018732286 1.269244605
C -3.792834609 -1.621731250 -1.520207151
H -5.468984114 -1.067785589 -2.588648777
C -1.311093251 -1.638245000 -2.887497323
H 0.213965129 -0.517562934 -3.631745756
C -2.292774944 -3.826244873 -2.479605722
H -2.182713571 -5.850644711 -2.641086750
H -4.225351685 1.008785165 1.579065316
H -5.586019596 -1.980554450 2.136013450
H -2.266619981 -1.612489186 2.261430491

