14

C -3.204268995 -1.952167759 0.149580270
C -2.067702251 0.186917724 1.636255799
C 3.506451528 -0.835160776 -1.266380158
C 3.559686285 1.614320727 -0.808120666
O 1.523760837 3.164636374 -0.329439621
C -0.610966768 2.186525603 0.532694141
N -2.803623398 2.925550096 0.925885148
H -5.127515895 -2.328089919 0.795588777
H -2.113133723 -3.689091593 0.397004247
H -3.278780330 -1.503498079 -1.861389473
H -1.899778749 -0.147352037 3.660084240
H 5.270823710 -1.796796726 -1.627996373
H 1.783629133 -1.930777325 -1.301469708
H 5.272187072 2.729858373 -0.814654904

