10

C 3.006394280 0.191705856 -0.111641334
O 0.605624946 0.555744114 -1.306428803
C -1.377874812 -0.082701237 0.033767743
O -1.279749989 -0.981300988 2.286651230
N -3.738701760 0.068124154 -0.639180794
H 3.111443003 1.293214571 1.623585563
H 4.402598131 0.842215558 -1.468865446
H 3.291586569 -1.801049555 0.318171147
H -4.342732005 0.709010124 -2.324334164
H -3.634538847 -0.865369994 1.698519572

