9

O -0.268289369 2.769428331 -1.515818035
C 0.147553954 0.417151259 -0.666524848
C -1.978261438 -1.055027916 0.174372229
O -4.114068473 -0.226664882 -0.023988920
C 2.587798438 -0.333163270 -0.014355569
N 4.790939420 -0.935085789 0.159953959
H -2.058616806 3.072899789 -1.236179235
H 2.542889324 -0.796896978 2.116992563
H -1.575484210 -2.951727640 0.943870975

