11

C 4.011243637 0.253530079 -0.884926883
C 3.643372315 0.806148944 1.441881196
C 0.980220745 0.433353412 1.060702971
C -0.044210275 -1.668931828 -0.371711359
C -2.609916152 -0.877961731 -0.874242806
N -3.071323323 1.342945020 0.047154279
N -0.900253507 2.113845829 1.210672978
H 2.083189293 -1.190339242 -1.950903627
H 0.496775569 -3.604263280 0.007113723
H -4.083696209 -1.894149973 -1.853325407
H -0.786530979 3.883103217 1.890927121

