12

O 2.924358132 0.878987682 -2.774931780
C 2.035558538 -0.829956565 -1.392106415
C 1.513785710 0.785650934 0.760253109
C -0.877084236 2.115965742 0.799486583
N -2.075619428 -0.162250071 1.863620900
C -2.215028209 -1.963306466 0.159070701
O -1.073936478 -1.991485722 -1.966841841
H 2.842297588 -2.728822312 -1.302286920
H 2.913932834 1.011188311 2.240020272
H -1.559033842 2.596475324 -1.085199302
H -0.992939660 3.689767472 2.107472841
H -3.409502191 -3.583722524 0.628051517

