16

C 3.488773500 0.078771344 -1.166221253
C 1.598176268 0.264865393 0.978639876
C -0.724523623 1.958604525 0.616878813
C -2.416191124 -0.066441240 1.128407871
O -3.498624207 -0.331342538 -2.265982161
C -0.302860661 -1.964876848 1.320377079
H 4.480941868 1.870804354 -1.423330492
H 2.535866138 -0.376759819 -2.940856310
H 4.904019819 -1.380669906 -0.798553549
H 2.588452813 0.632737924 2.755580947
H -1.886090121 1.301656715 -1.698976470
H -0.960470159 3.936993425 1.094287373
H -4.262606483 -0.155970832 2.011733533
H -5.146450157 0.384489668 -2.575170136
H -0.230280438 -2.889399635 3.162923810
H -0.292082457 -3.398145164 -0.157344833

