14

C 3.147665084 -0.272619582 -0.224590208
C 0.791958235 -0.459257646 1.368014864
C -1.097792324 1.640931737 1.207275270
O -1.306487365 3.014017095 -0.742042027
C -1.444550926 -1.799715597 0.267207387
O -1.804958018 -1.930798169 -2.095498421
H 4.148744683 -2.074056776 -0.231304708
H 2.675285218 0.208573589 -2.167013821
H 4.405918796 1.181774436 0.515181010
H 1.108139973 -1.021823614 3.321000345
H -2.462506365 1.865971341 2.741738476
H -2.541127664 1.883312111 -2.542111323
H -2.898808676 -2.521268759 1.544443361
H -2.719719425 0.155369975 -3.012132282

