17

O 1.114376976 -2.357603189 2.820320186
C 1.378900329 -1.971726065 0.441616542
C 2.789679260 0.408678899 -0.380959811
C 1.032149493 2.658295956 0.408503722
C -1.512213326 2.324071700 -0.689552880
C -0.768505373 -2.392221025 -1.260668801
C -3.090082937 0.480979726 0.132605824
H 2.275051845 -3.666340519 -0.733854769
H 4.571216031 0.578385281 0.634707850
H 3.167833621 0.450306523 -2.413584379
H 1.874806170 4.446690091 -0.168464964
H 0.926663923 2.552123773 2.467872809
H -2.022343910 3.413166578 -2.355894801
H -0.525953375 -2.042940810 -3.269623548
H -2.109491238 -3.867783094 -0.767305775
H -4.931784922 0.234189715 -0.729181099
H -2.733815913 -0.391874226 1.971674967

