13

C 4.796698927 0.378256293 2.692230921
C 2.909382204 -0.284038706 1.628102916
C 0.640652078 -0.979043181 0.321866431
C -0.657812530 1.132714255 -1.030450591
C -3.016266323 2.212095109 -0.073576524
O -2.985467623 0.576960333 -2.198307384
C -0.246985088 -3.329581705 0.310897780
H 6.476124518 0.943990368 3.643590408
H 0.586889956 2.349976330 -2.123739358
H -3.841997837 1.415426864 1.628106941
H -3.479101031 4.169822745 -0.478240871
H 0.715937407 -4.827823208 1.313495490
H -1.958030767 -3.771790789 -0.718955356

