13

C 5.592437673 -0.934336967 1.436030774
C 3.405193483 -0.495015856 1.040421675
C 0.799553838 -0.066542661 0.544366469
C -0.483470442 2.078967721 0.749796159
C -3.180700010 1.651157555 0.033008149
O -3.328179792 -0.939717848 -0.634915626
C -0.953546335 -2.132475769 -0.334524062
H 7.537010283 -1.305079387 1.792388014
H 0.271077565 3.879967916 1.348605335
H -4.479026064 2.053223641 1.599529236
H -3.758811886 2.824748419 -1.575400268
H -0.331885192 -2.952317272 -2.131953525
H -1.089653122 -3.662579491 1.055924326

