11

C -1.050030101 -1.538670928 -0.290103744
H -1.500887384 -2.947604673 1.150502870
H -0.849352109 -2.480260342 -2.116900609
C -2.985591816 0.610207646 -0.380609814
H -4.353188823 0.435363060 -1.907009049
H -3.991324960 0.793671328 1.423749104
O -1.469366242 2.763581802 -0.826881716
C 0.734172791 2.294320267 0.548327222
H 0.457237604 2.775296819 2.556290600
H 2.281821827 3.393377441 -0.253380450
O 1.256676471 -0.302839610 0.307758529

