14

C -1.259572401 -1.859071592 -0.086779323
C -2.811626369 0.564760091 -0.477838113
O -0.961512475 2.395852890 -1.084282237
C 0.949948013 2.465620993 0.561535330
C 3.500528446 -0.914914494 0.146370589
O 0.803024396 -0.950335539 1.288836189
H -2.313524099 -3.259156506 1.009262737
H -0.658216535 -2.667089079 -1.889950889
H -4.145001173 0.475471571 -2.039023710
H -3.794899796 1.081914183 1.267265211
H 0.553150635 2.859776213 2.538838393
H 2.551709356 3.427352714 -0.245632630
H 4.402833365 -2.622358902 0.893839191
H 3.194330680 -1.199284355 -1.890271764

