16

C 3.860059953 1.560093260 -0.055801553
C 2.258206996 -0.631187177 -0.677620035
C 0.632384659 -1.797468221 1.053804810
C -1.781888072 -0.264244335 -1.059290874
C -4.170048094 0.157623625 0.440745492
O -0.666621810 1.704272012 -2.016302702
H 4.299763166 2.683109043 -1.717766811
H 2.953858042 2.736791249 1.367172272
H 5.618050038 0.805218783 0.748465659
H 2.632752283 -1.584511620 -2.454878618
H 0.273636954 -3.803881873 0.892605691
H 0.553731839 -1.012777797 2.946570823
H -1.941689662 -1.957075926 -2.269981370
H -4.903108253 -1.585214258 1.266141901
H -3.856312456 1.561090827 1.914876017
H -5.572236387 0.918542938 -0.875833181

