13

C -2.560157660 1.331716267 -1.141194760
C 0.418425899 -2.095533041 3.452278844
N 1.282818867 -1.939863431 1.153267634
C 2.111145561 0.427077707 0.031111733
C 0.196956460 1.654373605 -1.746081711
O 0.943692226 2.897390474 -3.498954531
H -3.145740247 -0.601714668 -1.570728260
H -3.668203997 2.641743864 -2.271241363
H -2.899214872 1.617522604 0.874281697
H -0.083990163 -4.097911768 3.765743684
H 1.418874782 -3.451243917 -0.026369106
H 3.878248680 0.169937760 -0.996953854
H 2.428284540 1.742203200 1.590055850

