13

C -3.294006571 -0.226024907 -0.337830988
C -0.678081978 -0.257337423 0.811817764
N 1.226753187 -1.865188125 -0.471489333
C 3.127275185 0.179462056 -0.572735605
C 1.058167072 1.993378113 0.286057462
O 0.838279674 4.227892895 0.413945415
H -4.234574097 -2.039760741 -0.058279003
H -3.180682530 0.135417434 -2.363614276
H -4.439172155 1.248760295 0.537854549
H -0.780704368 -0.578948968 2.860474277
H 1.767569088 -3.400121534 0.522910009
H 3.928073218 0.530936072 -2.441349142
H 4.661104294 0.051534835 0.812238851

