13

C -2.471930221 0.472154365 -0.930464880
C -0.035071427 -0.573775370 2.109311828
N 1.757633664 -1.961091386 1.020265365
C 2.472204987 0.020127567 -0.806986641
C 0.324646879 1.685677485 0.491167277
O 0.238670765 3.995456808 0.822773564
H -2.599157620 -1.475949746 -1.595656375
H -2.400948121 1.760796366 -2.530701667
H -4.075261775 0.970843678 0.256218347
H -1.299864291 -1.140200631 3.621137438
H 1.673720678 -3.837402118 0.686925953
H 2.226487754 -0.536370811 -2.775524002
H 4.355440564 0.767790036 -0.465507442

