20

C 5.156687143 -0.936520866 -0.857215467
C 2.325427011 -0.554445210 -0.512588797
C 1.430055819 2.025231922 -1.426280336
N -2.078283148 2.591325707 1.523899978
C -1.408725233 2.436633180 -1.124397475
C -3.397818279 0.927239098 2.607127105
C -4.554385299 -1.460884415 1.594322908
H 6.227438809 0.481310164 0.194860205
H 5.695261526 -0.775292249 -2.844782256
H 5.757327616 -2.794687298 -0.192841260
H 1.296390918 -2.034286186 -1.533323513
H 1.837947478 -0.777850409 1.484131410
H 1.911823316 2.254923068 -3.425576315
H 2.426647489 3.513919707 -0.393341731
H -2.431595907 0.971048298 -2.175448519
H -1.913750118 4.252341056 -1.969466066
H -3.755359110 1.249845073 4.617498278
H -6.579745042 -1.471273826 1.994362868
H -4.279473177 -1.738629690 -0.422345569
H -3.740361034 -3.078462236 2.587980079

