17

C -4.362580705 1.329802617 -1.425046496
C -2.724199229 -0.969637107 -1.591781850
C -0.219513497 -1.073859887 -1.673303426
C 1.590675926 1.101116257 -1.627169448
C 3.352676520 1.091415840 0.619511353
C 3.223282645 -0.460812134 2.521758255
C 3.099214056 -2.009970834 4.425169795
H -5.629831347 1.438971358 -3.052758314
H -5.555706613 1.242294144 0.258695475
H -3.285462439 3.081790573 -1.342608573
H -3.736027118 -2.756629594 -1.643577448
H 0.658449349 -2.928093081 -1.762642988
H 0.594329808 2.908539839 -1.672119758
H 2.748612790 1.056331222 -3.344063167
H 4.838654419 2.509606428 0.636008133
H 1.968653220 -1.567191827 6.074895392
H 4.115585186 -3.788436291 4.413114231

