17

C -3.662748376 0.956207787 -0.696000002
C -2.165598435 -1.192910705 -1.758331370
C 0.297893195 -1.200353864 -2.248763940
C 2.073646082 0.967692352 -1.794508324
C 2.916425534 1.218098374 0.927965906
C 1.952087219 -0.194433071 2.746324142
C 0.302305101 -1.754214601 3.945672843
H -5.354181986 1.301948243 -1.827991115
H -4.280155066 0.506249087 1.223206209
H -2.572779235 2.701030922 -0.600016428
H -3.218788763 -2.914667409 -2.139511806
H 1.133262162 -2.926963176 -2.977777874
H 1.189305297 2.748498839 -2.372257996
H 3.743314846 0.755214627 -2.992724663
H 4.343827441 2.613214763 1.372779222
H 2.469237985 0.074859346 4.873841894
H 1.179220396 -3.600398658 4.337774837

