13

C -2.199845829 -1.079613914 1.734028773
C 0.070417772 0.380275503 -0.724523188
O -1.528424096 0.729399532 -2.690754459
C 2.576693274 -0.803897109 -0.720849447
C 2.113303232 1.805239002 0.377031032
H -1.449054483 -1.635326621 3.576401574
H -2.482910059 -2.742003151 0.572656558
H -3.926585645 0.027851067 1.883207514
H -1.838416904 2.510431407 -2.869247690
H 3.053768127 -2.366119882 0.527605600
H 3.299174008 -1.026351133 -2.633136974
H -0.444059334 0.714344689 1.630035501
H 2.720350726 3.529784222 -0.543481435

