12

O -1.290383421 1.708417674 1.369682282
C -2.755490013 -0.508646167 1.145935591
C -0.389459931 -1.887433301 1.338176372
O 3.206991562 -0.427221875 -0.472776425
C 2.954889549 1.240754055 -2.115370460
O 1.017504248 2.569828050 -2.488490968
H -0.422174095 2.192327667 -0.431702472
H -3.738704859 -0.683557119 -0.657997478
H -4.065033633 -0.707089369 2.724025998
H 0.332358322 -3.075838257 -0.147685649
H 0.526034369 -1.993514173 3.157720827
H 4.580538957 1.593196292 -3.373461882

