14

C -1.873802480 -2.344716315 0.312158870
C -0.857995565 0.254299840 -0.237917766
C -1.976707894 2.369121240 1.135955645
O -3.938176375 2.251518349 2.311623677
C 1.756985242 0.647333602 -0.960616348
O 1.867134184 2.303480734 -2.712598011
N 3.796822687 -0.522288572 -0.108626976
H -1.205563726 -3.084841233 2.128336230
H -3.924558271 -2.238281422 0.447970784
H -1.381029823 -3.698181743 -1.163137277
H -0.460161313 1.881136639 -2.545347007
H -0.936685254 4.185826722 0.991268538
H 3.679845371 -1.689175916 1.380947148
H 5.477771794 -0.243036845 -0.947442406

