14

O -3.225837177 -1.498070993 1.340181465
C -1.835219431 0.245859227 -0.151678735
C -0.216778175 1.959237357 1.504860269
O 1.407847720 0.558266312 3.099579926
C 4.177018481 -0.218459786 -2.913087862
N 1.994362698 -0.807955126 -2.481714751
C -0.353792409 -1.137416649 -2.149659238
H -2.070882546 -2.795915791 1.868802189
H -3.269439886 1.414915107 -1.079017781
H 0.971938964 3.166813641 0.327387738
H -1.469300480 3.175379732 2.612384644
H 5.619876081 -1.289551073 -1.894542640
H -1.328480735 -2.481429969 -3.351442283
H 0.473588497 0.078137983 4.574129554

