11

N -3.750350127 -0.710559378 -0.036293796
C -1.307245013 -0.805959216 0.451761045
N 0.443855093 -2.609040698 0.644427657
N 2.594288268 -1.310225754 -0.004658099
C 2.337304545 1.105573743 -0.504992136
C -0.246938922 1.725828231 -0.051166357
H -2.656952456 1.546108568 -1.035031892
H -4.905809371 -2.179969481 0.347496314
H 4.208210509 -2.309828720 -0.133888570
H 3.956423494 2.261495649 -0.956871875
H -0.623741978 3.268520723 1.253799023

