15

C -4.318803291 0.812603191 0.247279866
C -2.762123084 -0.695321761 -1.602646831
N 1.667887906 0.501907857 -1.508912447
C 2.210791746 -0.504523918 0.642388774
O 1.258870575 -1.652043535 2.377775959
C 5.119648813 0.231231764 0.583622582
H -6.184870498 -0.053164005 0.440880966
H -4.589462112 2.755858548 -0.382920590
H -3.427981464 0.828608547 2.102346694
H -2.300255897 -2.584279315 -0.950836071
H -3.510603181 -0.743268081 -3.523338140
H -0.874362275 0.382187962 -1.964633602
H 5.777829141 1.255810353 -1.069708990
H 6.094439166 -1.574358708 0.728650558
H 5.382372353 1.370968732 2.275399781

