11

C -1.677624077 -3.191476759 -1.577649156
C 0.366104466 -1.756499337 -1.683010628
C 1.870844548 -0.963900163 0.572816806
C 4.675034372 -1.411589850 0.338913744
O 5.713846662 -2.211674909 -1.508729238
H 5.784024967 -0.910722344 2.048798999
H 1.650566468 1.069854386 0.931530081
H 1.213697844 -1.897881143 2.298422201
H 1.049392129 -1.086535698 -3.497197861
H -2.395660459 -3.918391906 0.200770626
H -2.709393943 -3.702578512 -3.269363257

