16

C -2.037053482 -2.280438604 -1.078660415
C -0.312863681 -0.216836624 -0.902831623
C -2.198963383 3.043944026 0.492119095
C 1.765002273 -0.325696282 1.027957438
C 4.076903040 -1.646860734 -0.001888082
O 4.442709666 -2.092813064 -2.191201824
H -2.591955401 0.241701943 -0.175992802
H -2.147934088 -3.627105571 0.452026571
H -2.995224770 -2.663082784 -2.836229734
H 0.154862659 0.746322048 -2.645402846
H -0.946307852 4.502422517 -0.239822705
H -4.100301818 3.306625633 -0.283017762
H -2.242361435 3.050061939 2.553688239
H 2.386847929 1.550360566 1.636005108
H 1.134947722 -1.315020953 2.729008525
H 5.512931736 -2.137761919 1.445322860

