9

O -1.573275555 1.027785681 1.704886230
C -0.869072138 2.104506916 -0.665557516
C -0.101021338 -0.433304468 0.062227453
O -1.217844980 -2.442467841 -1.114052000
C 2.470526325 -0.915667757 0.958393029
N 4.479985988 -1.338059133 1.647848910
H -1.221116739 -3.878860309 0.000347615
H -2.385708575 2.258514682 -2.036573038
H 0.467597177 3.655530076 -0.568560463

