25

C    -0.76485  -2.77025   0.62001
C    -1.28889  -1.64778  -0.23291
O    -1.81973  -1.84260  -1.31288
C    -0.97719  -0.21942   0.22725
C    -2.06515   0.81987  -0.08465
C    -2.34046   1.89043   0.94078
O    -2.60504   0.82337  -1.17754
N    -0.63672  -0.17740   1.64929
N     0.59787   0.13177   1.82743
C     1.46295   0.36827   0.66562
C     2.67654  -0.60856   0.90488
O     2.49739  -1.81059   0.57626
O     3.66525  -0.13743   1.50993
C     0.66479   0.17420  -0.59185
C     0.35907   1.36962  -1.52162
O     0.13550   1.09869  -2.72706
O     0.27772   2.50356  -0.97922
H    -0.94522  -3.73050   0.11229
H     0.32566  -2.62632   0.75511
H    -1.22359  -2.77859   1.61759
H    -1.38964   2.39392   1.19731
H    -2.76284   1.48344   1.86819
H    -3.03098   2.64053   0.51333
H     1.84560   1.44292   0.75121
H     0.91953  -0.74483  -1.17870
25

C    -0.76400  -2.77095   0.61992
C    -1.29078  -1.64859  -0.23125
O    -1.81911  -1.84234  -1.31290
C    -0.99485  -0.22459   0.23652
C    -2.06813   0.81974  -0.08275
C    -2.34048   1.89222   0.94096
O    -2.60534   0.82350  -1.17727
N    -0.63463  -0.17648   1.64198
N     0.58064   0.12667   1.84829
C     1.48123   0.37300   0.64496
C     2.67811  -0.60807   0.90339
O     2.49723  -1.81106   0.57786
O     3.66610  -0.13857   1.51192
C     0.68330   0.17844  -0.59989
C     0.36021   1.36995  -1.52223
O     0.13411   1.09913  -2.72752
O     0.27623   2.50373  -0.97942
H    -0.94458  -3.73060   0.11195
H     0.32590  -2.62623   0.75496
H    -1.22333  -2.77952   1.61756
H    -1.38939   2.39409   1.19716
H    -2.76321   1.48448   1.86832
H    -3.03052   2.64136   0.51321
H     1.84663   1.44360   0.75066
H     0.91953  -0.74503  -1.17904
25

C    -0.76314  -2.77165   0.61982
C    -1.29267  -1.64941  -0.22958
O    -1.81850  -1.84208  -1.31291
C    -1.01252  -0.22976   0.24579
C    -2.07111   0.81960  -0.08085
C    -2.34049   1.89401   0.94115
O    -2.60563   0.82362  -1.17699
N    -0.63254  -0.17557   1.63467
N     0.56341   0.12157   1.86914
C     1.49950   0.37773   0.62430
C     2.67967  -0.60758   0.90190
O     2.49708  -1.81152   0.57946
O     3.66694  -0.13970   1.51392
C     0.70180   0.18268  -0.60793
C     0.36134   1.37029  -1.52283
O     0.13272   1.09957  -2.72798
O     0.27474   2.50390  -0.97961
H    -0.94394  -3.73070   0.11161
H     0.32613  -2.62614   0.75481
H    -1.22308  -2.78045   1.61753
H    -1.38914   2.39425   1.19701
H    -2.76359   1.48552   1.86845
H    -3.03005   2.64219   0.51309
H     1.84765   1.44429   0.75010
H     0.91953  -0.74522  -1.17938
25

C    -0.76228  -2.77235   0.61973
C    -1.29456  -1.65022  -0.22792
O    -1.81789  -1.84183  -1.31293
C    -1.03018  -0.23494   0.25506
C    -2.07409   0.81947  -0.07896
C    -2.34051   1.89580   0.94133
O    -2.60593   0.82374  -1.17671
N    -0.63044  -0.17466   1.62736
N     0.54618   0.11647   1.89000
C     1.51778   0.38246   0.60364
C     2.68124  -0.60709   0.90041
O     2.49692  -1.81198   0.58106
O     3.66779  -0.14083   1.51591
C     0.72031   0.18691  -0.61597
C     0.36247   1.37062  -1.52343
O     0.13133   1.10001  -2.72844
O     0.27326   2.50406  -0.97980
H    -0.94330  -3.73080   0.11127
H     0.32637  -2.62606   0.75465
H    -1.22282  -2.78138   1.61751
H    -1.38889   2.39441   1.19686
H    -2.76397   1.48656   1.86858
H    -3.02959   2.64303   0.51297
H     1.84868   1.44498   0.74954
H     0.91953  -0.74541  -1.17973
25

C    -0.76142  -2.77305   0.61964
C    -1.29645  -1.65103  -0.22625
O    -1.81728  -1.84157  -1.31295
C    -1.04785  -0.24011   0.26433
C    -2.07708   0.81934  -0.07706
C    -2.34052   1.89759   0.94151
O    -2.60623   0.82387  -1.17643
N    -0.62835  -0.17375   1.62005
N     0.52895   0.11137   1.91085
C     1.53606   0.38719   0.58298
C     2.68280  -0.60660   0.89892
O     2.49677  -1.81244   0.58265
O     3.66864  -0.14197   1.51790
C     0.73882   0.19115  -0.62401
C     0.36360   1.37095  -1.52404
O     0.12994   1.10045  -2.72890
O     0.27177   2.50423  -0.97999
H    -0.94266  -3.73090   0.11093
H     0.32661  -2.62597   0.75450
H    -1.22257  -2.78232   1.61748
H    -1.38865   2.39457   1.19671
H    -2.76435   1.48761   1.86870
H    -3.02913   2.64386   0.51285
H     1.84970   1.44566   0.74898
H     0.91953  -0.74561  -1.18007
25

C    -0.76057  -2.77375   0.61954
C    -1.29834  -1.65184  -0.22459
O    -1.81666  -1.84131  -1.31297
C    -1.06551  -0.24529   0.27360
C    -2.08006   0.81920  -0.07516
C    -2.34054   1.89939   0.94170
O    -2.60653   0.82399  -1.17615
N    -0.62626  -0.17283   1.61274
N     0.51173   0.10627   1.93171
C     1.55434   0.39192   0.56232
C     2.68437  -0.60611   0.89743
O     2.49661  -1.81291   0.58425
O     3.66948  -0.14310   1.51989
C     0.75733   0.19539  -0.63204
C     0.36474   1.37129  -1.52464
O     0.12855   1.10089  -2.72936
O     0.27028   2.50440  -0.98018
H    -0.94202  -3.73100   0.11059
H     0.32684  -2.62588   0.75435
H    -1.22231  -2.78325   1.61745
H    -1.38840   2.39473   1.19656
H    -2.76472   1.48865   1.86883
H    -3.02867   2.64469   0.51273
H     1.85073   1.44635   0.74843
H     0.91952  -0.74580  -1.18041
25

C    -0.75971  -2.77444   0.61945
C    -1.30023  -1.65265  -0.22292
O    -1.81605  -1.84106  -1.31298
C    -1.08317  -0.25046   0.28287
C    -2.08304   0.81907  -0.07326
C    -2.34055   1.90118   0.94188
O    -2.60683   0.82411  -1.17587
N    -0.62416  -0.17192   1.60543
N     0.49450   0.10117   1.95256
C     1.57261   0.39665   0.54166
C     2.68593  -0.60562   0.89594
O     2.49646  -1.81337   0.58585
O     3.67033  -0.14424   1.52188
C     0.77583   0.19962  -0.64008
C     0.36587   1.37162  -1.52525
O     0.12716   1.10133  -2.72981
O     0.26879   2.50456  -0.98037
H    -0.94138  -3.73110   0.11024
H     0.32708  -2.62579   0.75420
H    -1.22206  -2.78418   1.61743
H    -1.38815   2.39489   1.19641
H    -2.76510   1.48969   1.86896
H    -3.02821   2.64552   0.51261
H     1.85175   1.44704   0.74787
H     0.91952  -0.74599  -1.18076
25

C    -0.75885  -2.77514   0.61936
C    -1.30212  -1.65346  -0.22126
O    -1.81544  -1.84080  -1.31300
C    -1.10084  -0.25563   0.29214
C    -2.08602   0.81894  -0.07137
C    -2.34057   1.90297   0.94207
O    -2.60713   0.82424  -1.17560
N    -0.62207  -0.17101   1.59811
N     0.47727   0.09607   1.97342
C     1.59089   0.40138   0.52100
C     2.68750  -0.60513   0.89444
O     2.49630  -1.81383   0.58745
O     3.67117  -0.14537   1.52388
C     0.79434   0.20386  -0.64812
C     0.36700   1.37195  -1.52585
O     0.12577   1.10177  -2.73027
O     0.26731   2.50473  -0.98057
H    -0.94074  -3.73120   0.10990
H     0.32732  -2.62570   0.75405
H    -1.22180  -2.78511   1.61740
H    -1.38790   2.39505   1.19626
H    -2.76548   1.49073   1.86909
H    -3.02774   2.64636   0.51249
H     1.85278   1.44773   0.74731
H     0.91952  -0.74619  -1.18110
25

C    -0.75800  -2.77584   0.61926
C    -1.30402  -1.65427  -0.21959
O    -1.81483  -1.84054  -1.31302
C    -1.11850  -0.26081   0.30141
C    -2.08900   0.81880  -0.06947
C    -2.34058   1.90476   0.94225
O    -2.60743   0.82436  -1.17532
N    -0.61998  -0.17010   1.59080
N     0.46004   0.09097   1.99427
C     1.60917   0.40611   0.50034
C     2.68907  -0.60464   0.89295
O     2.49615  -1.81430   0.58905
O     3.67202  -0.14650   1.52587
C     0.81285   0.20810  -0.65616
C     0.36813   1.37228  -1.52645
O     0.12438   1.10221  -2.73073
O     0.26582   2.50490  -0.98076
H    -0.94010  -3.73130   0.10956
H     0.32755  -2.62562   0.75389
H    -1.22155  -2.78604   1.61737
H    -1.38765   2.39521   1.19612
H    -2.76586   1.49177   1.86922
H    -3.02728   2.64719   0.51237
H     1.85380   1.44841   0.74675
H     0.91952  -0.74638  -1.18144
25

C    -0.75714  -2.77654   0.61917
C    -1.30591  -1.65509  -0.21792
O    -1.81421  -1.84029  -1.31303
C    -1.13617  -0.26598   0.31068
C    -2.09199   0.81867  -0.06757
C    -2.34060   1.90655   0.94243
O    -2.60773   0.82448  -1.17504
N    -0.61789  -0.16918   1.58349
N     0.44281   0.08587   2.01513
C     1.62744   0.41084   0.47968
C     2.69063  -0.60415   0.89146
O     2.49599  -1.81476   0.59065
O     3.67286  -0.14764   1.52786
C     0.83135   0.21234  -0.66420
C     0.36926   1.37262  -1.52706
O     0.12300   1.10265  -2.73119
O     0.26433   2.50507  -0.98095
H    -0.93945  -3.73140   0.10922
H     0.32779  -2.62553   0.75374
H    -1.22129  -2.78698   1.61735
H    -1.38740   2.39538   1.19597
H    -2.76623   1.49282   1.86935
H    -3.02682   2.64802   0.51225
H     1.85482   1.44910   0.74620
H     0.91952  -0.74657  -1.18179
25

C    -0.75628  -2.77724   0.61907
C    -1.30780  -1.65590  -0.21626
O    -1.81360  -1.84003  -1.31305
C    -1.15383  -0.27115   0.31995
C    -2.09497   0.81854  -0.06567
C    -2.34061   1.90834   0.94262
O    -2.60803   0.82461  -1.17476
N    -0.61579  -0.16827   1.57618
N     0.42558   0.08077   2.03598
C     1.64572   0.41557   0.45902
C     2.69220  -0.60366   0.88997
O     2.49584  -1.81522   0.59225
O     3.67371  -0.14877   1.52985
C     0.84986   0.21657  -0.67224
C     0.37040   1.37295  -1.52766
O     0.12161   1.10310  -2.73165
O     0.26285   2.50523  -0.98114
H    -0.93881  -3.73150   0.10888
H     0.32803  -2.62544   0.75359
H    -1.22104  -2.78791   1.61732
H    -1.38715   2.39554   1.19582
H    -2.76661   1.49386   1.86947
H    -3.02636   2.64885   0.51213
H     1.85585   1.44979   0.74564
H     0.91951  -0.74677  -1.18213
25

C    -0.75543  -2.77794   0.61898
C    -1.30969  -1.65671  -0.21459
O    -1.81299  -1.83977  -1.31307
C    -1.17149  -0.27633   0.32923
C    -2.09795   0.81840  -0.06378
C    -2.34063   1.91013   0.94280
O    -2.60832   0.82473  -1.17448
N    -0.61370  -0.16736   1.56887
N     0.40835   0.07567   2.05684
C     1.66400   0.42030   0.43836
C     2.69376  -0.60317   0.88848
O     2.49568  -1.81568   0.59385
O     3.67456  -0.14990   1.53184
C     0.86837   0.22081  -0.68028
C     0.37153   1.37328  -1.52827
O     0.12022   1.10354  -2.73211
O     0.26136   2.50540  -0.98133
H    -0.93817  -3.73160   0.10854
H     0.32826  -2.62535   0.75344
H    -1.22078  -2.78884   1.61729
H    -1.38690   2.39570   1.19567
H    -2.76699   1.49490   1.86960
H    -3.02589   2.64968   0.51201
H     1.85687   1.45048   0.74508
H     0.91951  -0.74696  -1.18247
25

C    -0.75457  -2.77864   0.61889
C    -1.31158  -1.65752  -0.21293
O    -1.81238  -1.83952  -1.31309
C    -1.18916  -0.28150   0.33850
C    -2.10093   0.81827  -0.06188
C    -2.34065   1.91193   0.94299
O    -2.60862   0.82485  -1.17421
N    -0.61161  -0.16645   1.56156
N     0.39112   0.07057   2.07769
C     1.68227   0.42503   0.41770
C     2.69533  -0.60268   0.88699
O     2.49553  -1.81615   0.59544
O     3.67540  -0.15104   1.53384
C     0.88687   0.22505  -0.68831
C     0.37266   1.37361  -1.52887
O     0.11883   1.10398  -2.73256
O     0.25987   2.50557  -0.98152
H    -0.93753  -3.73170   0.10820
H     0.32850  -2.62526   0.75329
H    -1.22053  -2.78977   1.61727
H    -1.38665   2.39586   1.19552
H    -2.76736   1.49594   1.86973
H    -3.02543   2.65052   0.51189
H     1.85790   1.45116   0.74453
H     0.91951  -0.74715  -1.18281
25

C    -0.75371  -2.77933   0.61879
C    -1.31347  -1.65833  -0.21126
O    -1.81177  -1.83926  -1.31310
C    -1.20682  -0.28668   0.34777
C    -2.10392   0.81814  -0.05998
C    -2.34066   1.91372   0.94317
O    -2.60892   0.82498  -1.17393
N    -0.60952  -0.16554   1.55425
N     0.37389   0.06547   2.09855
C     1.70055   0.42976   0.39704
C     2.69689  -0.60219   0.88550
O     2.49537  -1.81661   0.59704
O     3.67625  -0.15217   1.53583
C     0.90538   0.22929  -0.69635
C     0.37379   1.37395  -1.52947
O     0.11744   1.10442  -2.73302
O     0.25838   2.50573  -0.98172
H    -0.93689  -3.73180   0.10786
H     0.32874  -2.62517   0.75313
H    -1.22027  -2.79070   1.61724
H    -1.38640   2.39602   1.19537
H    -2.76774   1.49698   1.86986
H    -3.02497   2.65135   0.51177
H     1.85892   1.45185   0.74397
H     0.91951  -0.74735  -1.18316
25

C    -0.75286  -2.78003   0.61870
C    -1.31536  -1.65914  -0.20960
O    -1.81115  -1.83900  -1.31312
C    -1.22449  -0.29185   0.35704
C    -2.10690   0.81800  -0.05808
C    -2.34068   1.91551   0.94335
O    -2.60922   0.82510  -1.17365
N    -0.60742  -0.16462   1.54694
N     0.35666   0.06037   2.11940
C     1.71883   0.43449   0.37639
C     2.69846  -0.60170   0.88401
O     2.49522  -1.81707   0.59864
O     3.67709  -0.15331   1.53782
C     0.92389   0.23352  -0.70439
C     0.37492   1.37428  -1.53008
O     0.11605   1.10486  -2.73348
O     0.25690   2.50590  -0.98191
H    -0.93625  -3.73190   0.10752
H     0.32897  -2.62509   0.75298
H    -1.22002  -2.79164   1.61721
H    -1.38615   2.39618   1.19522
H    -2.76812   1.49803   1.86999
H    -3.02451   2.65218   0.51165
H     1.85995   1.45254   0.74341
H     0.91951  -0.74754  -1.18350
25

C    -0.75200  -2.78073   0.61860
C    -1.31725  -1.65995  -0.20793
O    -1.81054  -1.83875  -1.31314
C    -1.24215  -0.29702   0.36631
C    -2.10988   0.81787  -0.05619
C    -2.34069   1.91730   0.94354
O    -2.60952   0.82522  -1.17337
N    -0.60533  -0.16371   1.53962
N     0.33943   0.05527   2.14026
C     1.73711   0.43922   0.35573
C     2.70003  -0.60121   0.88252
O     2.49507  -1.81753   0.60024
O     3.67794  -0.15444   1.53981
C     0.94239   0.23776  -0.71243
C     0.37606   1.37461  -1.53068
O     0.11466   1.10530  -2.73394
O     0.25541   2.50607  -0.98210
H    -0.93561  -3.73200   0.10717
H     0.32921  -2.62500   0.75283
H    -1.21976  -2.79257   1.61719
H    -1.38590   2.39634   1.19507
H    -2.76850   1.49907   1.87012
H    -3.02404   2.65301   0.51153
H     1.86097   1.45323   0.74285
H     0.91950  -0.74773  -1.18384
25

C    -0.75114  -2.78143   0.61851
C    -1.31914  -1.66077  -0.20626
O    -1.80993  -1.83849  -1.31315
C    -1.25982  -0.30220   0.37558
C    -2.11286   0.81774  -0.05429
C    -2.34071   1.91909   0.94372
O    -2.60982   0.82535  -1.17309
N    -0.60324  -0.16280   1.53231
N     0.32220   0.05017   2.16111
C     1.75538   0.44395   0.33507
C     2.70159  -0.60072   0.88103
O     2.49491  -1.81800   0.60184
O     3.67878  -0.15557   1.54180
C     0.96090   0.24200  -0.72047
C     0.37719   1.37495  -1.53128
O     0.11327   1.10574  -2.73440
O     0.25392   2.50623  -0.98229
H    -0.93497  -3.73210   0.10683
H     0.32945  -2.62491   0.75268
H    -1.21951  -2.79350   1.61716
H    -1.38566   2.39651   1.19492
H    -2.76887   1.50011   1.87025
H    -3.02358   2.65385   0.51141
H     1.86199   1.45391   0.74230
H     0.91950  -0.74792  -1.18419
25

C    -0.75029  -2.78213   0.61842
C    -1.32103  -1.66158  -0.20460
O    -1.80932  -1.83823  -1.31317
C    -1.27748  -0.30737   0.38485
C    -2.11585   0.81761  -0.05239
C    -2.34072   1.92088   0.94391
O    -2.61012   0.82547  -1.17282
N    -0.60114  -0.16189   1.52500
N     0.30497   0.04507   2.18197
C     1.77366   0.44868   0.31441
C     2.70316  -0.60022   0.87954
O     2.49476  -1.81846   0.60344
O     3.67963  -0.15671   1.54379
C     0.97941   0.24623  -0.72851
C     0.37832   1.37528  -1.53189
O     0.11188   1.10618  -2.73486
O     0.25243   2.50640  -0.98248
H    -0.93433  -3.73220   0.10649
H     0.32968  -2.62482   0.75252
H    -1.21925  -2.79443   1.61714
H    -1.38541   2.39667   1.19477
H    -2.76925   1.50115   1.87037
H    -3.02312   2.65468   0.51129
H     1.86302   1.45460   0.74174
H     0.91950  -0.74812  -1.18453
25

C    -0.74943  -2.78283   0.61832
C    -1.32292  -1.66239  -0.20293
O    -1.80870  -1.83797  -1.31319
C    -1.29514  -0.31254   0.39412
C    -2.11883   0.81747  -0.05049
C    -2.34074   1.92267   0.94409
O    -2.61042   0.82559  -1.17254
N    -0.59905  -0.16097   1.51769
N     0.28774   0.03997   2.20282
C     1.79194   0.45341   0.29375
C     2.70472  -0.59973   0.87805
O     2.49460  -1.81892   0.60504
O     3.68047  -0.15784   1.54579
C     0.99791   0.25047  -0.73655
C     0.37945   1.37561  -1.53249
O     0.11049   1.10662  -2.73531
O     0.25095   2.50657  -0.98267
H    -0.93369  -3.73230   0.10615
H     0.32992  -2.62473   0.75237
H    -1.21900  -2.79536   1.61711
H    -1.38516   2.39683   1.19462
H    -2.76963   1.50219   1.87050
H    -3.02266   2.65551   0.51117
H     1.86404   1.45529   0.74118
H     0.91950  -0.74831  -1.18487
25

C    -0.74857  -2.78352   0.61823
C    -1.32481  -1.66320  -0.20127
O    -1.80809  -1.83772  -1.31321
C    -1.31281  -0.31772   0.40339
C    -2.12181   0.81734  -0.04859
C    -2.34075   1.92446   0.94427
O    -2.61071   0.82572  -1.17226
N    -0.59696  -0.16006   1.51038
N     0.27051   0.03487   2.22368
C     1.81021   0.45814   0.27309
C     2.70629  -0.59924   0.87656
O     2.49445  -1.81939   0.60664
O     3.68132  -0.15897   1.54778
C     1.01642   0.25471  -0.74459
C     0.38058   1.37594  -1.53310
O     0.10910   1.10706  -2.73577
O     0.24946   2.50674  -0.98287
H    -0.93305  -3.73240   0.10581
H     0.33015  -2.62464   0.75222
H    -1.21874  -2.79630   1.61708
H    -1.38491   2.39699   1.19447
H    -2.77000   1.50324   1.87063
H    -3.02219   2.65634   0.51104
H     1.86507   1.45598   0.74063
H     0.91950  -0.74850  -1.18522
25

C    -0.74771  -2.78422   0.61813
C    -1.32670  -1.66401  -0.19960
O    -1.80748  -1.83746  -1.31322
C    -1.33047  -0.32289   0.41266
C    -2.12479   0.81721  -0.04670
C    -2.34077   1.92626   0.94446
O    -2.61101   0.82584  -1.17198
N    -0.59487  -0.15915   1.50307
N     0.25328   0.02978   2.24453
C     1.82849   0.46287   0.25243
C     2.70785  -0.59875   0.87507
O     2.49429  -1.81985   0.60823
O     3.68217  -0.16011   1.54977
C     1.03493   0.25895  -0.75262
C     0.38172   1.37628  -1.53370
O     0.10771   1.10750  -2.73623
O     0.24797   2.50690  -0.98306
H    -0.93240  -3.73250   0.10547
H     0.33039  -2.62456   0.75207
H    -1.21848  -2.79723   1.61706
H    -1.38466   2.39715   1.19432
H    -2.77038   1.50428   1.87076
H    -3.02173   2.65717   0.51092
H     1.86609   1.45666   0.74007
H     0.91949  -0.74870  -1.18556
25

C    -0.74857  -2.78352   0.61823
C    -1.32481  -1.66320  -0.20127
O    -1.80809  -1.83772  -1.31321
C    -1.31281  -0.31772   0.40339
C    -2.12181   0.81734  -0.04859
C    -2.34075   1.92446   0.94427
O    -2.61071   0.82572  -1.17226
N    -0.59696  -0.16006   1.51038
N     0.27051   0.03487   2.22368
C     1.81021   0.45814   0.27309
C     2.70629  -0.59924   0.87656
O     2.49445  -1.81939   0.60664
O     3.68132  -0.15897   1.54778
C     1.01642   0.25471  -0.74459
C     0.38058   1.37594  -1.53310
O     0.10910   1.10706  -2.73577
O     0.24946   2.50674  -0.98287
H    -0.93305  -3.73240   0.10581
H     0.33015  -2.62464   0.75222
H    -1.21874  -2.79630   1.61708
H    -1.38491   2.39699   1.19447
H    -2.77000   1.50324   1.87063
H    -3.02219   2.65634   0.51104
H     1.86507   1.45598   0.74063
H     0.91950  -0.74850  -1.18522
25

C    -0.74943  -2.78283   0.61832
C    -1.32292  -1.66239  -0.20293
O    -1.80870  -1.83797  -1.31319
C    -1.29514  -0.31254   0.39412
C    -2.11883   0.81747  -0.05049
C    -2.34074   1.92267   0.94409
O    -2.61042   0.82559  -1.17254
N    -0.59905  -0.16097   1.51769
N     0.28774   0.03997   2.20282
C     1.79194   0.45341   0.29375
C     2.70472  -0.59973   0.87805
O     2.49460  -1.81892   0.60504
O     3.68047  -0.15784   1.54579
C     0.99791   0.25047  -0.73655
C     0.37945   1.37561  -1.53249
O     0.11049   1.10662  -2.73531
O     0.25095   2.50657  -0.98267
H    -0.93369  -3.73230   0.10615
H     0.32992  -2.62473   0.75237
H    -1.21900  -2.79536   1.61711
H    -1.38516   2.39683   1.19462
H    -2.76963   1.50219   1.87050
H    -3.02266   2.65551   0.51117
H     1.86404   1.45529   0.74118
H     0.91950  -0.74831  -1.18487
25

C    -0.75029  -2.78213   0.61842
C    -1.32103  -1.66158  -0.20460
O    -1.80932  -1.83823  -1.31317
C    -1.27748  -0.30737   0.38485
C    -2.11585   0.81761  -0.05239
C    -2.34072   1.92088   0.94391
O    -2.61012   0.82547  -1.17282
N    -0.60114  -0.16189   1.52500
N     0.30497   0.04507   2.18197
C     1.77366   0.44868   0.31441
C     2.70316  -0.60022   0.87954
O     2.49476  -1.81846   0.60344
O     3.67963  -0.15671   1.54379
C     0.97941   0.24623  -0.72851
C     0.37832   1.37528  -1.53189
O     0.11188   1.10618  -2.73486
O     0.25243   2.50640  -0.98248
H    -0.93433  -3.73220   0.10649
H     0.32968  -2.62482   0.75252
H    -1.21925  -2.79443   1.61714
H    -1.38541   2.39667   1.19477
H    -2.76925   1.50115   1.87037
H    -3.02312   2.65468   0.51129
H     1.86302   1.45460   0.74174
H     0.91950  -0.74812  -1.18453
25

C    -0.75114  -2.78143   0.61851
C    -1.31914  -1.66077  -0.20626
O    -1.80993  -1.83849  -1.31315
C    -1.25982  -0.30220   0.37558
C    -2.11286   0.81774  -0.05429
C    -2.34071   1.91909   0.94372
O    -2.60982   0.82535  -1.17309
N    -0.60324  -0.16280   1.53231
N     0.32220   0.05017   2.16111
C     1.75538   0.44395   0.33507
C     2.70159  -0.60072   0.88103
O     2.49491  -1.81800   0.60184
O     3.67878  -0.15557   1.54180
C     0.96090   0.24200  -0.72047
C     0.37719   1.37495  -1.53128
O     0.11327   1.10574  -2.73440
O     0.25392   2.50623  -0.98229
H    -0.93497  -3.73210   0.10683
H     0.32945  -2.62491   0.75268
H    -1.21951  -2.79350   1.61716
H    -1.38566   2.39651   1.19492
H    -2.76887   1.50011   1.87025
H    -3.02358   2.65385   0.51141
H     1.86199   1.45391   0.74230
H     0.91950  -0.74792  -1.18419
25

C    -0.75200  -2.78073   0.61860
C    -1.31725  -1.65995  -0.20793
O    -1.81054  -1.83875  -1.31314
C    -1.24215  -0.29702   0.36631
C    -2.10988   0.81787  -0.05619
C    -2.34069   1.91730   0.94354
O    -2.60952   0.82522  -1.17337
N    -0.60533  -0.16371   1.53962
N     0.33943   0.05527   2.14026
C     1.73711   0.43922   0.35573
C     2.70003  -0.60121   0.88252
O     2.49507  -1.81753   0.60024
O     3.67794  -0.15444   1.53981
C     0.94239   0.23776  -0.71243
C     0.37606   1.37461  -1.53068
O     0.11466   1.10530  -2.73394
O     0.25541   2.50607  -0.98210
H    -0.93561  -3.73200   0.10717
H     0.32921  -2.62500   0.75283
H    -1.21976  -2.79257   1.61719
H    -1.38590   2.39634   1.19507
H    -2.76850   1.49907   1.87012
H    -3.02404   2.65301   0.51153
H     1.86097   1.45323   0.74285
H     0.91950  -0.74773  -1.18384
25

C    -0.75286  -2.78003   0.61870
C    -1.31536  -1.65914  -0.20960
O    -1.81115  -1.83900  -1.31312
C    -1.22449  -0.29185   0.35704
C    -2.10690   0.81800  -0.05808
C    -2.34068   1.91551   0.94335
O    -2.60922   0.82510  -1.17365
N    -0.60742  -0.16462   1.54694
N     0.35666   0.06037   2.11940
C     1.71883   0.43449   0.37639
C     2.69846  -0.60170   0.88401
O     2.49522  -1.81707   0.59864
O     3.67709  -0.15331   1.53782
C     0.92389   0.23352  -0.70439
C     0.37492   1.37428  -1.53008
O     0.11605   1.10486  -2.73348
O     0.25690   2.50590  -0.98191
H    -0.93625  -3.73190   0.10752
H     0.32897  -2.62509   0.75298
H    -1.22002  -2.79164   1.61721
H    -1.38615   2.39618   1.19522
H    -2.76812   1.49803   1.86999
H    -3.02451   2.65218   0.51165
H     1.85995   1.45254   0.74341
H     0.91951  -0.74754  -1.18350
25

C    -0.75371  -2.77933   0.61879
C    -1.31347  -1.65833  -0.21126
O    -1.81177  -1.83926  -1.31310
C    -1.20682  -0.28668   0.34777
C    -2.10392   0.81814  -0.05998
C    -2.34066   1.91372   0.94317
O    -2.60892   0.82498  -1.17393
N    -0.60952  -0.16554   1.55425
N     0.37389   0.06547   2.09855
C     1.70055   0.42976   0.39704
C     2.69689  -0.60219   0.88550
O     2.49537  -1.81661   0.59704
O     3.67625  -0.15217   1.53583
C     0.90538   0.22929  -0.69635
C     0.37379   1.37395  -1.52947
O     0.11744   1.10442  -2.73302
O     0.25838   2.50573  -0.98172
H    -0.93689  -3.73180   0.10786
H     0.32874  -2.62517   0.75313
H    -1.22027  -2.79070   1.61724
H    -1.38640   2.39602   1.19537
H    -2.76774   1.49698   1.86986
H    -3.02497   2.65135   0.51177
H     1.85892   1.45185   0.74397
H     0.91951  -0.74735  -1.18316
25

C    -0.75457  -2.77864   0.61889
C    -1.31158  -1.65752  -0.21293
O    -1.81238  -1.83952  -1.31309
C    -1.18916  -0.28150   0.33850
C    -2.10093   0.81827  -0.06188
C    -2.34065   1.91193   0.94299
O    -2.60862   0.82485  -1.17421
N    -0.61161  -0.16645   1.56156
N     0.39112   0.07057   2.07769
C     1.68227   0.42503   0.41770
C     2.69533  -0.60268   0.88699
O     2.49553  -1.81615   0.59544
O     3.67540  -0.15104   1.53384
C     0.88687   0.22505  -0.68831
C     0.37266   1.37361  -1.52887
O     0.11883   1.10398  -2.73256
O     0.25987   2.50557  -0.98152
H    -0.93753  -3.73170   0.10820
H     0.32850  -2.62526   0.75329
H    -1.22053  -2.78977   1.61727
H    -1.38665   2.39586   1.19552
H    -2.76736   1.49594   1.86973
H    -3.02543   2.65052   0.51189
H     1.85790   1.45116   0.74453
H     0.91951  -0.74715  -1.18281
25

C    -0.75543  -2.77794   0.61898
C    -1.30969  -1.65671  -0.21459
O    -1.81299  -1.83977  -1.31307
C    -1.17149  -0.27633   0.32923
C    -2.09795   0.81840  -0.06378
C    -2.34063   1.91013   0.94280
O    -2.60832   0.82473  -1.17448
N    -0.61370  -0.16736   1.56887
N     0.40835   0.07567   2.05684
C     1.66400   0.42030   0.43836
C     2.69376  -0.60317   0.88848
O     2.49568  -1.81568   0.59385
O     3.67456  -0.14990   1.53184
C     0.86837   0.22081  -0.68028
C     0.37153   1.37328  -1.52827
O     0.12022   1.10354  -2.73211
O     0.26136   2.50540  -0.98133
H    -0.93817  -3.73160   0.10854
H     0.32826  -2.62535   0.75344
H    -1.22078  -2.78884   1.61729
H    -1.38690   2.39570   1.19567
H    -2.76699   1.49490   1.86960
H    -3.02589   2.64968   0.51201
H     1.85687   1.45048   0.74508
H     0.91951  -0.74696  -1.18247
25

C    -0.75628  -2.77724   0.61907
C    -1.30780  -1.65590  -0.21626
O    -1.81360  -1.84003  -1.31305
C    -1.15383  -0.27115   0.31995
C    -2.09497   0.81854  -0.06567
C    -2.34061   1.90834   0.94262
O    -2.60803   0.82461  -1.17476
N    -0.61579  -0.16827   1.57618
N     0.42558   0.08077   2.03598
C     1.64572   0.41557   0.45902
C     2.69220  -0.60366   0.88997
O     2.49584  -1.81522   0.59225
O     3.67371  -0.14877   1.52985
C     0.84986   0.21657  -0.67224
C     0.37040   1.37295  -1.52766
O     0.12161   1.10310  -2.73165
O     0.26285   2.50523  -0.98114
H    -0.93881  -3.73150   0.10888
H     0.32803  -2.62544   0.75359
H    -1.22104  -2.78791   1.61732
H    -1.38715   2.39554   1.19582
H    -2.76661   1.49386   1.86947
H    -3.02636   2.64885   0.51213
H     1.85585   1.44979   0.74564
H     0.91951  -0.74677  -1.18213
25

C    -0.75714  -2.77654   0.61917
C    -1.30591  -1.65509  -0.21792
O    -1.81421  -1.84029  -1.31303
C    -1.13617  -0.26598   0.31068
C    -2.09199   0.81867  -0.06757
C    -2.34060   1.90655   0.94243
O    -2.60773   0.82448  -1.17504
N    -0.61789  -0.16918   1.58349
N     0.44281   0.08587   2.01513
C     1.62744   0.41084   0.47968
C     2.69063  -0.60415   0.89146
O     2.49599  -1.81476   0.59065
O     3.67286  -0.14764   1.52786
C     0.83135   0.21234  -0.66420
C     0.36926   1.37262  -1.52706
O     0.12300   1.10265  -2.73119
O     0.26433   2.50507  -0.98095
H    -0.93945  -3.73140   0.10922
H     0.32779  -2.62553   0.75374
H    -1.22129  -2.78698   1.61735
H    -1.38740   2.39538   1.19597
H    -2.76623   1.49282   1.86935
H    -3.02682   2.64802   0.51225
H     1.85482   1.44910   0.74620
H     0.91952  -0.74657  -1.18179
25

C    -0.75800  -2.77584   0.61926
C    -1.30402  -1.65427  -0.21959
O    -1.81483  -1.84054  -1.31302
C    -1.11850  -0.26081   0.30141
C    -2.08900   0.81880  -0.06947
C    -2.34058   1.90476   0.94225
O    -2.60743   0.82436  -1.17532
N    -0.61998  -0.17010   1.59080
N     0.46004   0.09097   1.99427
C     1.60917   0.40611   0.50034
C     2.68907  -0.60464   0.89295
O     2.49615  -1.81430   0.58905
O     3.67202  -0.14650   1.52587
C     0.81285   0.20810  -0.65616
C     0.36813   1.37228  -1.52645
O     0.12438   1.10221  -2.73073
O     0.26582   2.50490  -0.98076
H    -0.94010  -3.73130   0.10956
H     0.32755  -2.62562   0.75389
H    -1.22155  -2.78604   1.61737
H    -1.38765   2.39521   1.19612
H    -2.76586   1.49177   1.86922
H    -3.02728   2.64719   0.51237
H     1.85380   1.44841   0.74675
H     0.91952  -0.74638  -1.18144
25

C    -0.75885  -2.77514   0.61936
C    -1.30212  -1.65346  -0.22126
O    -1.81544  -1.84080  -1.31300
C    -1.10084  -0.25563   0.29214
C    -2.08602   0.81894  -0.07137
C    -2.34057   1.90297   0.94207
O    -2.60713   0.82424  -1.17560
N    -0.62207  -0.17101   1.59811
N     0.47727   0.09607   1.97342
C     1.59089   0.40138   0.52100
C     2.68750  -0.60513   0.89444
O     2.49630  -1.81383   0.58745
O     3.67117  -0.14537   1.52388
C     0.79434   0.20386  -0.64812
C     0.36700   1.37195  -1.52585
O     0.12577   1.10177  -2.73027
O     0.26731   2.50473  -0.98057
H    -0.94074  -3.73120   0.10990
H     0.32732  -2.62570   0.75405
H    -1.22180  -2.78511   1.61740
H    -1.38790   2.39505   1.19626
H    -2.76548   1.49073   1.86909
H    -3.02774   2.64636   0.51249
H     1.85278   1.44773   0.74731
H     0.91952  -0.74619  -1.18110
25

C    -0.75971  -2.77444   0.61945
C    -1.30023  -1.65265  -0.22292
O    -1.81605  -1.84106  -1.31298
C    -1.08317  -0.25046   0.28287
C    -2.08304   0.81907  -0.07326
C    -2.34055   1.90118   0.94188
O    -2.60683   0.82411  -1.17587
N    -0.62416  -0.17192   1.60543
N     0.49450   0.10117   1.95256
C     1.57261   0.39665   0.54166
C     2.68593  -0.60562   0.89594
O     2.49646  -1.81337   0.58585
O     3.67033  -0.14424   1.52188
C     0.77583   0.19962  -0.64008
C     0.36587   1.37162  -1.52525
O     0.12716   1.10133  -2.72981
O     0.26879   2.50456  -0.98037
H    -0.94138  -3.73110   0.11024
H     0.32708  -2.62579   0.75420
H    -1.22206  -2.78418   1.61743
H    -1.38815   2.39489   1.19641
H    -2.76510   1.48969   1.86896
H    -3.02821   2.64552   0.51261
H     1.85175   1.44704   0.74787
H     0.91952  -0.74599  -1.18076
25

C    -0.76057  -2.77375   0.61954
C    -1.29834  -1.65184  -0.22459
O    -1.81666  -1.84131  -1.31297
C    -1.06551  -0.24529   0.27360
C    -2.08006   0.81920  -0.07516
C    -2.34054   1.89939   0.94170
O    -2.60653   0.82399  -1.17615
N    -0.62626  -0.17283   1.61274
N     0.51173   0.10627   1.93171
C     1.55434   0.39192   0.56232
C     2.68437  -0.60611   0.89743
O     2.49661  -1.81291   0.58425
O     3.66948  -0.14310   1.51989
C     0.75733   0.19539  -0.63204
C     0.36474   1.37129  -1.52464
O     0.12855   1.10089  -2.72936
O     0.27028   2.50440  -0.98018
H    -0.94202  -3.73100   0.11059
H     0.32684  -2.62588   0.75435
H    -1.22231  -2.78325   1.61745
H    -1.38840   2.39473   1.19656
H    -2.76472   1.48865   1.86883
H    -3.02867   2.64469   0.51273
H     1.85073   1.44635   0.74843
H     0.91952  -0.74580  -1.18041
25

C    -0.76142  -2.77305   0.61964
C    -1.29645  -1.65103  -0.22625
O    -1.81728  -1.84157  -1.31295
C    -1.04785  -0.24011   0.26433
C    -2.07708   0.81934  -0.07706
C    -2.34052   1.89759   0.94151
O    -2.60623   0.82387  -1.17643
N    -0.62835  -0.17375   1.62005
N     0.52895   0.11137   1.91085
C     1.53606   0.38719   0.58298
C     2.68280  -0.60660   0.89892
O     2.49677  -1.81244   0.58265
O     3.66864  -0.14197   1.51790
C     0.73882   0.19115  -0.62401
C     0.36360   1.37095  -1.52404
O     0.12994   1.10045  -2.72890
O     0.27177   2.50423  -0.97999
H    -0.94266  -3.73090   0.11093
H     0.32661  -2.62597   0.75450
H    -1.22257  -2.78232   1.61748
H    -1.38865   2.39457   1.19671
H    -2.76435   1.48761   1.86870
H    -3.02913   2.64386   0.51285
H     1.84970   1.44566   0.74898
H     0.91953  -0.74561  -1.18007
25

C    -0.76228  -2.77235   0.61973
C    -1.29456  -1.65022  -0.22792
O    -1.81789  -1.84183  -1.31293
C    -1.03018  -0.23494   0.25506
C    -2.07409   0.81947  -0.07896
C    -2.34051   1.89580   0.94133
O    -2.60593   0.82374  -1.17671
N    -0.63044  -0.17466   1.62736
N     0.54618   0.11647   1.89000
C     1.51778   0.38246   0.60364
C     2.68124  -0.60709   0.90041
O     2.49692  -1.81198   0.58106
O     3.66779  -0.14083   1.51591
C     0.72031   0.18691  -0.61597
C     0.36247   1.37062  -1.52343
O     0.13133   1.10001  -2.72844
O     0.27326   2.50406  -0.97980
H    -0.94330  -3.73080   0.11127
H     0.32637  -2.62606   0.75465
H    -1.22282  -2.78138   1.61751
H    -1.38889   2.39441   1.19686
H    -2.76397   1.48656   1.86858
H    -3.02959   2.64303   0.51297
H     1.84868   1.44498   0.74954
H     0.91953  -0.74541  -1.17973
25

C    -0.76314  -2.77165   0.61982
C    -1.29267  -1.64941  -0.22958
O    -1.81850  -1.84208  -1.31291
C    -1.01252  -0.22976   0.24579
C    -2.07111   0.81960  -0.08085
C    -2.34049   1.89401   0.94115
O    -2.60563   0.82362  -1.17699
N    -0.63254  -0.17557   1.63467
N     0.56341   0.12157   1.86914
C     1.49950   0.37773   0.62430
C     2.67967  -0.60758   0.90190
O     2.49708  -1.81152   0.57946
O     3.66694  -0.13970   1.51392
C     0.70180   0.18268  -0.60793
C     0.36134   1.37029  -1.52283
O     0.13272   1.09957  -2.72798
O     0.27474   2.50390  -0.97961
H    -0.94394  -3.73070   0.11161
H     0.32613  -2.62614   0.75481
H    -1.22308  -2.78045   1.61753
H    -1.38914   2.39425   1.19701
H    -2.76359   1.48552   1.86845
H    -3.03005   2.64219   0.51309
H     1.84765   1.44429   0.75010
H     0.91953  -0.74522  -1.17938
25

C    -0.76400  -2.77095   0.61992
C    -1.29078  -1.64859  -0.23125
O    -1.81911  -1.84234  -1.31290
C    -0.99485  -0.22459   0.23652
C    -2.06813   0.81974  -0.08275
C    -2.34048   1.89222   0.94096
O    -2.60534   0.82350  -1.17727
N    -0.63463  -0.17648   1.64198
N     0.58064   0.12667   1.84829
C     1.48123   0.37300   0.64496
C     2.67811  -0.60807   0.90339
O     2.49723  -1.81106   0.57786
O     3.66610  -0.13857   1.51192
C     0.68330   0.17844  -0.59989
C     0.36021   1.36995  -1.52223
O     0.13411   1.09913  -2.72752
O     0.27623   2.50373  -0.97942
H    -0.94458  -3.73060   0.11195
H     0.32590  -2.62623   0.75496
H    -1.22333  -2.77952   1.61756
H    -1.38939   2.39409   1.19716
H    -2.76321   1.48448   1.86832
H    -3.03052   2.64136   0.51321
H     1.84663   1.44360   0.75066
H     0.91953  -0.74503  -1.17904
