13

N -2.600564993 -1.602257963 -1.469786272
C -1.442727888 0.619824840 -2.116856333
O -1.305861998 1.337835352 -4.292885206
C -0.407916678 2.118921558 0.033580622
C 3.016206569 -0.250457762 0.644276970
O 2.095667419 -2.163032698 2.036681225
H -2.179767980 -2.416497656 0.194772806
H -3.014088470 -2.765048343 -2.915474851
H -1.429605479 1.900349371 1.806188797
H -0.187810582 4.088749563 -0.514298206
H 2.955767421 -0.803803832 -1.344368569
H 1.966236468 1.843130184 0.845973467
H 2.432844298 -1.822211993 3.789145184

