8

C 1.082265502 2.348064362 1.116886532
O -0.456759106 3.026206717 3.072055630
H -0.817537643 1.557154755 4.075670731
C 1.947802870 0.086871900 0.658816995
C 2.811068843 -2.166626730 0.179872731
H 1.778376753 -3.472939938 -1.018859427
H 4.594912479 -2.820948785 0.954254283
H 1.545737691 3.938870565 -0.083832219

