14

C -1.607697993 0.386309493 -3.431308062
C 0.416869501 0.184874363 -1.459188744
C 2.379373476 -1.361322077 -1.674240976
H 3.803088150 -1.495752734 -0.209214641
H 2.620994463 -2.545230487 -3.328064330
C 0.046952834 1.781730015 0.898682332
C -1.287993239 0.095008683 2.764163119
O -3.729258364 0.366827229 2.404075126
H -4.594181911 -0.773032401 3.528888492
H 1.871756416 2.319146299 1.683414991
H -1.055859622 3.476691347 0.454055173
H -1.291043276 -0.946465833 -4.969209814
H -3.468712280 0.019686109 -2.613075642
H -1.666928019 2.295624594 -4.219115438

