14

C -4.307579149 -1.037193739 -0.692012038
N -2.670695923 0.060116969 1.210383057
C -0.426210777 0.472191234 0.663049245
C 1.954190598 1.581709629 1.812151204
C 3.432005522 -0.642784124 0.643324170
C 1.617967653 0.373158303 -1.399284710
O 2.288772901 2.954425262 -0.597225208
H -3.353342800 -1.433663930 -2.487709264
H -5.878901691 0.250653576 -1.045502468
H -5.107607157 -2.791213491 0.040802778
H 2.256864554 2.604008131 3.565283370
H 3.109124762 -2.533590208 1.394359384
H 5.410502004 -0.219918975 0.271049730
H 1.550461609 -0.020762799 -3.412880813

