16

C 1.289021288 1.224696844 0.665573371
H 1.384261047 0.629600488 2.640985498
H 2.173788886 3.083308458 0.586653476
C 2.648961163 -0.693164204 -1.041861627
H 4.193021986 -1.684920839 -0.104294117
H 3.427783023 0.252089994 -2.705966395
C 0.564190963 -2.502339788 -1.884973104
O 0.003215010 -4.346923493 -0.016056946
H -0.498043783 -3.505793658 1.510551160
H 1.088216325 -3.589972170 -3.555526336
C -1.657998062 -0.725312829 -2.373955840
H -3.449954840 -1.742193751 -2.403086213
H -1.414467166 0.161829550 -4.223353583
C -1.489304119 1.275420570 -0.263191644
H -2.785219166 0.829810526 1.280010318
H -2.038082589 3.138888667 -0.949182523

