9

O 0.602185191 4.622142015 0.091336700
C 1.235102734 2.376795455 1.200494309
C -1.289201322 -3.552177836 -0.726183275
O -3.113953825 -3.229188474 -2.011798388
C 0.948606459 0.133663333 0.209316365
N 0.845793395 -1.966088634 -0.757365967
H -0.136597719 4.326973314 -1.539415140
H 2.017588320 2.568632382 3.076972546
H -1.010112301 -5.216610472 0.494032990

