9

O -0.283890230 3.259990405 -0.206072215
C 0.903958296 1.360367671 0.981477772
C -1.016967925 -1.718385583 -0.261397273
O -2.491921180 -0.970585051 -1.803080387
C 2.140312747 -0.530939209 -0.344067878
N 2.088628341 -2.579495983 -1.321046911
H -1.479427069 2.488769344 -1.395904009
H 1.338430218 1.627513869 2.962562026
H -1.146717314 -2.899174489 1.403697353

