10

O 4.142765230 -1.100868136 -1.099965943
C 2.862040690 0.442844996 -0.038030795
N 0.551747929 -0.045065584 1.069414288
C -1.783048250 1.126252809 0.283636137
C -1.325467189 -1.634515871 -0.072918749
H 3.476192081 2.414857733 0.257927094
H -3.013913217 1.773481115 1.786059094
H -1.738131067 2.308842586 -1.391135946
H -0.933487497 -2.308927000 -1.967842622
H -2.238698730 -2.976902647 1.172857461

