12

O -1.251013170 0.368243825 -2.636513801
C -1.186993614 -1.701623863 -0.891862424
C -1.107555329 -0.376584773 1.687922650
C 0.993483788 1.523403868 0.954647856
C 1.304141686 0.549033564 -1.760145223
O 1.430070238 -2.136191519 -1.432645595
H -2.473226233 -3.257834775 -1.273469447
H -0.570211252 -1.670010181 3.194745966
H -2.905627998 0.511300136 2.147560206
H 0.384908733 3.488368097 0.996181561
H 2.723885629 1.312477362 2.047061339
H 2.662113506 1.375751742 -3.061898938

