11

O 0.102344298 1.870711738 2.879996754
C -0.217688532 1.735832706 0.443698056
C -2.133299029 -0.080905449 -0.866290839
C -0.308399675 -2.172775615 -0.244722576
C 1.959484627 -1.082394967 0.318687741
C 2.196188509 1.529218858 -0.877922538
O 3.705147916 2.568726661 -2.151256775
H -3.900234397 -0.252818125 0.171907384
H -2.504538825 0.383472182 -2.835259095
H -0.874901886 -3.982110201 0.537395874
H 1.705781431 -0.018854308 2.777115378

