16

C 3.239709429 -1.193667125 0.860000772
C 0.734116024 -0.123294161 0.058928615
C 0.317021607 0.471071287 -2.672258066
C -1.031312798 -1.739205905 -1.448056632
C -2.656929212 2.244676916 1.958404252
O -0.111955426 1.514821904 1.961029214
H 4.584134823 0.332379941 1.202866803
H 4.010031377 -2.430189667 -0.597411063
H 3.031590943 -2.276789524 2.602631484
H -3.239473799 3.115603858 0.169927461
H -0.830118457 2.095918488 -3.149722674
H 1.841266706 0.101895903 -3.985046779
H -0.433397122 -3.641201095 -1.906317448
H -3.046873536 -1.543325021 -1.173559116
H -3.919793440 0.655975338 2.369429473
H -2.864342868 3.646982410 3.450559987

