15

C 3.540088842 0.990561156 0.218041684
C 0.787858247 0.381364647 0.085420175
C -0.997936039 1.253433115 1.907956218
C -3.468307161 -0.634341943 -0.474937743
O -2.638101266 0.474815893 -2.722559400
C -0.306632252 -0.815397755 -2.225671790
C -1.640572255 -2.578618602 -0.502413983
H 4.569714644 -0.367671540 1.384818989
H 4.437825291 1.061423543 -1.638710723
H 3.750663632 2.823844714 1.151245589
H -0.627353565 3.168698151 2.617788978
H -1.790545663 0.087535308 3.378464063
H -5.403295174 -0.442365327 0.144819785
H 0.905579662 -1.235857680 -3.826062117
H -1.129750843 -4.185977031 0.633141891

