16

C 5.404013213 -0.759160829 0.095087579
C 2.927963843 1.041212903 0.474681515
C 1.736998591 -1.193573640 0.744961389
C -4.578574398 0.433856911 -0.120954056
C -6.534426103 -1.487799179 -0.382484857
C -2.982787424 2.023997629 0.114103799
N 2.923333069 3.415534499 0.613756287
H 6.577079432 -0.421671560 1.744418885
H 5.164588976 -2.799195486 -0.093670530
H 6.220127742 -0.025683495 -1.647069794
H 1.084714852 -2.090319079 -0.991390576
H -8.406442300 -0.651421080 -0.167243275
H -6.310357969 -2.948163541 1.055287489
H -6.442769435 -2.385895980 -2.235989656
H -1.526795870 3.411883435 0.338059928
H 4.663691253 4.187410085 0.410737850

