16

C 3.290544801 0.955992907 -1.010602647
C 0.713725879 0.269038022 -0.161321176
O 1.573872689 -2.795788782 1.852103567
C -1.544853280 -0.476105858 -1.743316588
C -3.269831985 0.603367404 0.374077768
C -0.841177437 1.127260051 1.861633362
H 3.173155014 2.758682895 -2.019948966
H 4.072122619 -0.461115095 -2.281630095
H 4.548452957 1.188865274 0.599506599
H 1.092664703 -4.481034861 1.362655544
H -1.610288203 0.608506080 -3.499269945
H -1.728895181 -2.474119223 -2.196336305
H -4.598257540 -0.727348178 1.221265800
H -4.311648429 2.275456927 -0.232632542
H -0.042557445 -1.126278641 2.672882601
H -0.436428564 2.640725396 3.180580693

