10

O 3.240836103 -0.329479060 0.120678761
C 0.682810602 -0.336617387 -0.570316604
C -1.203421740 -1.432136691 1.254508086
N -2.987414948 0.086804815 1.766537165
N -2.503490178 2.454853333 0.486928905
C -0.451138891 2.253989846 -0.736805860
H 3.947976778 -1.970490336 -0.176180111
H -1.171762195 -3.331212538 2.021461654
H 0.387773766 -1.258477191 -2.417257270
H 0.307711078 3.804773294 -1.834454432

