10

O 3.883938400 -0.073650999 -0.439527204
C 1.338187294 0.127055415 -0.198126880
C -0.416832822 -1.618695046 0.581814095
N -2.677115720 -0.412509922 0.460400136
N -2.494426466 1.956999581 -0.333660514
C -0.055681914 2.322881871 -0.745048997
H 4.411869185 -1.745883347 0.011483941
H -0.243011447 -3.554766666 1.191201788
H -4.382463496 -1.119243871 0.889269625
H 0.635536987 4.117812984 -1.417806010

