10

O 3.630278176 -0.250024089 -0.600140640
C 1.151824488 0.145214927 -0.159549766
C -0.677475471 -1.488717605 0.819329652
N -3.029463622 -0.092234490 0.936698973
N -2.592834445 2.144709271 -0.067755658
C -0.140012775 2.365863824 -0.644840562
H 4.112254563 -1.903494405 -0.037745446
H -0.491519088 -3.230519086 1.869579962
H -2.533506569 -1.803219943 -0.682876724
H 0.601773155 4.094268886 -1.436188245

