13

C -3.136188588 -1.969468315 0.609694075
C -1.228276987 -0.125536283 -0.490686380
C 2.785501793 4.091927988 0.047025721
O 3.521134549 2.007202045 1.132184734
C 3.236834702 -0.392457792 -0.017410538
N 1.215404550 -1.348524663 -0.720706395
H -3.242169135 -3.674838693 -0.541135661
H -5.003916411 -1.099952810 0.683966661
H -2.603453534 -2.516495424 2.524829154
H -1.807221154 0.419268962 -2.396926405
H -1.170906375 1.605731469 0.649941500
H 2.141737676 3.562994704 -1.900723594
H 5.039752572 -1.366545035 -0.101791156

