14

C -2.234016196 -2.050834404 -0.220009096
C -1.412878719 0.498666580 -1.269934204
C 0.801392655 1.674484845 0.171344416
O 0.171210018 2.158671758 2.689156242
C 3.117942489 0.020624717 0.020940584
O 4.234355437 -0.683474916 1.869550898
H -3.907551700 -2.744018450 -1.202722882
H -2.687321205 -1.894804858 1.783728060
H -0.755093155 -3.478145113 -0.427865912
H -2.977486346 1.840936552 -1.177961611
H -0.890069055 0.337137156 -3.265458308
H 1.322015623 3.450699487 -0.786616168
H 1.464375173 1.379818811 3.716743351
H 3.753124963 -0.509762183 -1.900895389

