11

C -3.332852197 0.710850321 0.215185438
C -0.585424152 -0.461402447 -1.592635837
O -0.729280064 1.961067424 -1.527856649
N 1.629751777 -1.461332242 -0.636458455
C 3.661144188 -0.161374769 0.389256634
O 5.542146562 -1.205637538 1.115620472
H -4.838501087 0.477900965 -1.140013473
H -3.376686492 2.497298793 1.238373018
H -3.194830702 -0.846999948 1.554158896
H 1.842513056 -3.352133658 -0.753086285
H 3.369917304 1.889525908 0.470900683

