14

C -2.345784596 -2.128331978 0.986337354
C -0.141980566 -0.956197054 0.793393520
C 2.083061586 -2.193040188 -0.458788275
O 3.139022932 -0.493037237 -2.262355928
H 4.782430928 -1.078528191 -2.743929671
H 1.504917868 -3.959424890 -1.367406221
H 3.500807011 -2.639847127 0.989597850
C 0.299873363 1.649113760 1.862070512
O 0.440511865 3.531920728 -0.025247006
H 1.606108752 2.928525866 -1.286016869
H -1.261043231 2.170106434 3.103222732
H 2.035912786 1.633126847 3.007268618
H -2.652066058 -3.986246944 0.176841610
H -3.926427550 -1.267802158 1.963765330

