16

C -2.864067932 -1.750016953 0.879551822
C -0.781280092 -0.183074116 0.117276914
C 1.260567020 -1.547597748 -1.341549438
O 3.088098063 0.167793715 -2.284792608
C 0.092774762 1.796924755 2.008826624
O 1.338553655 3.901975987 1.006694655
H -2.713027811 0.394560869 -1.162916481
H -3.173207775 -3.550622195 -0.028569900
H -4.122835082 -1.115451002 2.351759098
H -1.416573134 1.675772599 -1.949824914
H 0.404673757 -2.646962022 -2.869381842
H 2.099487765 -2.866071193 0.018221438
H 4.467121677 -0.761977352 -2.997027153
H -1.545461526 2.491234303 3.046896081
H 1.278354710 0.737876598 3.347653704
H 2.585480217 3.298936848 -0.174926335

