15

C -3.934227508 0.489021947 0.008502218
C -1.429261700 -0.818387775 -0.029980448
N 0.567545680 0.115619265 1.503018977
C 2.577197283 -1.536650338 1.277579507
C 3.627654442 -0.642188804 -1.000695077
N 3.338187423 2.094454801 -1.000898128
C 1.484456424 2.436958685 0.464706973
H -5.050213567 -0.153683149 -1.600982228
H -5.013019581 0.064714049 1.723224567
H -3.740991353 2.537599905 -0.132151175
H 1.330277392 -1.063927883 -2.161879076
H -1.505737631 -2.872200217 -0.068270362
H 2.254086354 -3.494059385 1.764880423
H 5.257173878 -1.401680750 -1.975327865
H 0.543395471 4.209300427 0.844834926

