8

C -1.032007329 -1.085429622 0.463114388
N 1.096837936 -2.356414268 0.719868585
N 3.053866241 -0.893725354 0.310809246
N 3.947662195 0.461039147 -1.065937815
N -0.266473153 1.758783487 -2.367924665
C -1.394964947 1.567973096 -0.318923730
H -2.671816267 -2.318097331 0.508273211
H -2.719200072 2.879958752 0.586995308

