13

C -0.935736460 -3.636485529 -2.202710313
C -0.115192413 -1.278977526 -2.460501346
N 1.598371023 -0.077564546 -0.861470015
C 2.635163630 -1.418429034 1.275685302
H 1.136476151 -2.010536845 2.566560581
H 3.675702676 -3.091082507 0.656983413
H 3.924196407 -0.179276069 2.293860535
C 2.286461444 2.374633193 -1.337851906
O 1.526602626 3.645545935 -3.066206606
H 3.652151491 3.088019110 0.067754373
H -0.737665194 -0.069860737 -3.987600064
H -0.341577427 -4.879557560 -0.692105069
H -2.269793776 -4.380117345 -3.557712693

