14

O 3.326732206 -1.628971339 -1.688373576
C 2.219864756 -0.490795852 0.425291236
C 1.268458932 2.261870797 0.132483218
C -1.473404436 1.902093324 -0.497467738
C -2.097691467 -0.862783753 -1.019603431
C -0.397493327 -1.350077923 1.256081302
N -1.101651957 1.303233219 2.210043773
H 2.737724736 -0.803688408 -3.190150398
H 3.584603684 -0.627395026 1.965437378
H 0.694485047 2.649924753 2.571440591
H -2.625604866 3.500667681 -1.051259273
H -1.565091548 -1.694318106 -2.825885411
H -4.070360128 -1.275181350 -0.602698517
H -0.687943627 -2.954478968 2.507201260

