9

N -3.002898929 -0.701900710 -0.039706661
C -0.734144049 0.258774333 -0.230856030
O 1.208471428 -1.306239433 -0.023791274
C 3.617053702 -0.340022163 -0.539016579
O 4.016710425 1.608651813 -1.524967786
C -2.358986431 3.092019944 0.859883250
N -4.251041170 1.605287799 0.839491386
H -3.501513561 -2.465577321 0.544368038
H 4.996327365 -1.740213375 0.107766186

