19

C 4.079327256 -0.348195191 2.048951254
C 2.364958475 -1.189967911 -1.794721542
C 0.444430193 0.780039317 -1.902059101
C -2.047186515 -0.051249996 -3.122827752
C -2.076078915 0.869900896 -0.493060027
C -2.665384924 -0.872989370 1.672846074
O -3.123807084 3.287389412 -0.236955650
H 6.005647361 -0.839541444 2.588742413
H 2.727977642 -1.533536258 3.026832292
H 3.696133601 1.646941463 2.344748629
H 1.589169039 -2.968774935 -1.067632616
H 4.273867607 -0.665529454 -0.228896611
H 1.060275383 2.635005649 -2.528705946
H -2.304562866 -2.052446832 -3.461141603
H -2.793145849 1.183380420 -4.569104017
H -4.706439315 -1.120496873 1.833624313
H -1.970957665 -0.087143568 3.453055125
H -1.806728919 -2.727159239 1.415347439
H -2.297522370 4.122984163 1.145261658

