8

C -2.470961925 -0.470896866 0.258707229
C 0.239402751 -1.110800707 0.141690361
O 1.487956007 1.086431082 -0.258313486
C 3.948879179 0.921244264 -0.429754958
N 6.108679991 0.952333641 -0.605238611
H -2.952269614 1.524375527 0.038136865
H -3.405648189 -1.624090385 -1.183692754
H -3.178952164 -1.217161580 2.053879868

