9

C 2.895992681 2.749939472 -0.687027318
C 4.261633954 0.653907411 -0.720361407
C 4.331787202 -1.275068986 1.343525657
H 3.098970999 -0.747728383 2.909245841
H 6.250124744 -1.502041383 2.075276915
H 3.733959965 -3.124213602 0.643019471
H 5.440538652 0.268404434 -2.359554936
H 1.689969544 3.218830053 0.904392423
H 2.929550400 4.073573267 -2.248091595

