10

C -4.135894545 1.019848094 -1.538903269
C -3.070656325 -0.708660317 0.512988588
C -3.293012046 0.470774563 3.087977574
O -1.575765666 0.762998447 4.539173760
H -5.231239522 1.103619785 3.604746143
H -4.151291920 -2.475152884 0.559746780
H -1.093657149 -1.180751452 0.172953801
H -3.045676886 2.764683040 -1.677952209
H -4.084154543 0.088834230 -3.375516355
H -6.098847784 1.525923497 -1.148323147

