21

C -6.948400298 0.541037244 0.087665718
C -4.532013512 -1.006835024 -0.121893609
C -2.192826875 0.641361614 -0.121707849
O -0.036535757 -0.897939500 -0.296237171
C 2.234452515 0.478009511 -0.278570311
C 4.439571795 -1.337460468 -0.448046108
C 6.973418382 0.025088458 -0.398193980
H -7.137094100 1.861671383 -1.488691961
H -8.614272697 -0.672941489 0.084451350
H -6.983809495 1.642930330 1.833968073
H -4.393030013 -2.340868341 1.449034830
H -4.544571706 -2.130508149 -1.855133082
H -2.118100018 1.779826324 1.619605328
H -2.251388449 1.974216951 -1.719792087
H 2.366713804 1.609909672 1.463696025
H 2.275572238 1.811306818 -1.876834375
H 4.251912277 -2.442358653 -2.183218147
H 4.309812428 -2.673082723 1.122301599
H 7.214046583 1.097811977 1.349822867
H 7.148364521 1.348800695 -1.973645063
H 8.538178358 -1.309976612 -0.531869597

