8

O 3.595121522 0.796645909 1.094488440
C 1.455374956 -0.286943404 0.397506271
N 0.954178127 -2.372623923 -0.584608471
O -3.273182772 -1.313233574 -1.804974705
C -2.807956936 0.511794507 -0.484350431
N -0.762314082 0.896350826 0.934273566
H 4.995197933 -0.321728140 0.762777878
H -4.156420637 2.089737818 -0.315112530

