13

C -2.251836219 -1.375726704 0.272519748
O -0.004557169 -2.485252847 -0.585777795
C 2.134837700 -1.162462909 0.316813076
C 2.106344958 1.531983414 -0.652827168
N -0.277019658 2.828132654 -0.179894576
C -2.183435163 1.466045332 0.254579141
H -2.721669849 -2.016803101 2.198859335
H -3.770299550 -2.023069962 -0.968736407
H 2.153604703 -1.177100728 2.395614690
H 3.793401130 -2.187476645 -0.348375187
H 3.615795901 2.630787270 0.229570468
H 2.451612623 1.566046936 -2.690891105
H -3.972789486 2.412078286 0.659814771

