12

O -2.937138822 -1.931977150 0.775972173
C -0.866373080 -1.162889212 0.245273582
C -0.260563167 1.621045847 0.494293716
H -1.176099740 2.593182703 -1.088779521
H -1.072636403 2.338959075 2.243912447
O 2.355261195 2.231061912 0.495644190
C 3.958075077 0.604604456 -0.636284184
H 5.788308466 1.495026531 -0.905562560
N 3.594229458 -1.639450381 -1.314769071
C 1.195241399 -2.838577378 -0.786179415
H 0.474749016 -3.739047297 -2.501460896
H 1.491109885 -4.374206206 0.566059127

