14

O -1.896195829 -1.403860228 2.925096505
C -1.390457270 -0.388045811 0.711107040
C -0.252638563 2.261479492 0.654844791
O 2.398776523 2.025487413 1.026757197
C 3.518589447 0.101691813 -0.219170908
N 2.516248891 -1.721564820 -1.364487954
C -0.216745143 -2.007580519 -1.353525842
H -3.771849862 -0.551917305 1.266398583
H -3.804408634 0.222909902 -0.403239889
H -0.613701806 3.201223664 -1.153904321
H -0.981152059 3.388584208 2.210739117
H 5.560770871 0.282425333 -0.121406116
H -0.952893680 -1.508330978 -3.219616104
H -0.677615443 -3.980576235 -0.983164542

