12

C 3.721021936 1.322741051 -0.386509936
C 1.318063034 0.672429883 -0.265827037
O -0.632429200 1.498712631 -1.780471382
C -0.350970499 -0.972412680 1.340440377
C -2.486401857 0.150863602 -0.282923295
O -3.998156357 -1.417942316 -1.684969499
H -2.956686338 -2.591917115 -2.601267669
H 5.059070524 0.523626952 0.932003873
H 4.378546208 2.654284446 -1.790344237
H -0.089313219 -2.998147307 1.067944005
H -0.406131718 -0.543510083 3.350585746
H -3.743058543 1.475441069 0.671963442

