12

C 2.897936756 0.566885561 -1.078997750
C 0.900307119 1.291384202 0.400342429
O -0.560783163 3.186709868 0.162327644
C -0.660484508 -0.728341493 1.762698224
C -2.586888913 -0.471730216 -0.297398465
O -1.979125798 -1.139480778 -2.513300200
H 0.007696080 -0.988469853 -2.551780410
H 4.032828561 -1.046658546 -0.532535574
H 3.699900770 1.917851240 -2.391146791
H 0.120923008 -2.632340341 1.882618298
H -1.380075152 -0.061322047 3.564072377
H -4.549310175 0.060946993 -0.019153621

