14

O -3.996715498 1.790478445 0.431685672
C -1.721862490 1.526055418 -0.964431271
C -0.030204891 -0.263271730 0.475520175
C 1.056239589 -2.861011678 -0.693494244
C 2.714198061 -0.746295139 -1.106442451
C 2.812994984 0.429569481 1.341394670
H -5.097691821 2.925571714 -0.449731593
H -0.765935950 3.347194292 -1.188592700
H -2.084814118 0.764944014 -2.853277237
H -0.914709043 -0.871217525 2.225380186
H 3.174396016 -0.623804981 3.086552626
H 1.280578483 -4.178345579 0.887318842
H 0.107195999 -3.683015859 -2.317764777
H 3.355156219 2.406870088 1.449599726

