10

N 3.280317867 -0.489986728 -0.647566586
C 0.779643438 0.038745338 -0.185089981
N -1.046585999 -1.721231586 -0.081167611
N -3.326867397 -0.598893477 0.286327769
C -2.708532266 1.790387871 0.374233708
N -0.202682254 2.299021433 0.104478006
H 4.389309407 1.033302037 -0.383066232
H 3.968232506 -2.054263652 0.186692526
H -0.935233831 -3.596488966 -0.337314904
H -4.110640056 3.243655140 0.660000701

