13

C -2.921936202 1.449924948 0.845384024
C -1.182455569 -0.552812071 0.301124267
C 1.244538703 0.046665974 -0.993962399
C 3.585872144 -0.097961645 0.453407658
O 2.960947236 -1.954378021 -1.375985124
H -4.303865327 1.220461741 2.323599495
H -2.872880443 3.162613290 -0.262158814
H -3.156317365 -0.732001893 -1.027512237
H -2.132796550 -2.396843692 -1.770762177
H -1.056423611 -2.077903786 1.666034179
H 1.106814103 1.396065901 -2.536311130
H 5.147675984 1.140548624 -0.030828538
H 3.522252965 -0.730635734 2.405701235

