13

N 3.303059947 1.395950364 -0.282739065
C 0.939759195 0.999432986 0.395599991
C -0.008890689 -1.506616826 0.803664125
O 1.557184896 -3.325507002 0.656231075
C -2.695973505 -1.392988671 0.530213933
C -3.259236820 1.063213907 -0.010387692
N -1.113292065 2.465507855 -0.289492096
H 3.807100889 -0.989376960 -1.841972840
H 4.469366558 0.506189183 0.949945878
H 3.158516042 -2.505718392 -1.079915250
H -4.017697014 -2.924621881 0.751758772
H -5.091318209 1.947250918 -0.174965717
H -1.049616666 4.350313416 -0.476492836

