11

O 3.793566897 1.140517009 0.744977924
C 1.646201730 0.599690507 0.333190595
N 0.590765387 -1.692762427 0.251689637
C -2.037640034 -2.258242051 -0.309443106
C 0.267939014 4.869087948 -0.195679572
O -0.277851478 2.467744119 -0.166334846
H 1.805223563 -3.122091590 0.544804640
H -2.329205084 -4.270338222 -0.002580005
H -3.300204722 -1.213321656 0.933066069
H 2.331378798 5.007661640 0.213361399
H -2.509343472 -1.809416204 -2.264322415

