11

O 4.878858531 0.238351024 -0.028948563
C 2.639600140 0.369086359 -0.196672075
N 0.912274471 -1.331960495 0.718526653
C -1.715701473 -1.202530829 0.139433650
C -1.042293978 2.708057396 -0.931977530
O 1.407182367 2.235462876 -1.518833358
H 1.665795601 -2.966026007 1.327186291
H -2.351111129 -2.743155695 -1.084470170
H -2.930162993 -1.009511821 1.786483659
H -1.202506527 3.010113998 1.127349719
H -2.295483318 0.582390008 -1.319383215

