13

C -1.797972967 0.725513272 -0.419475660
C -1.506482240 -0.759087829 -2.879777697
O 1.036942840 -1.454892981 -2.228276418
C 0.815820279 -0.372764597 0.231638754
O 0.820982104 -2.348849052 1.971716919
N 2.731224739 1.387424165 0.926024779
H -1.817458935 2.771523225 -0.639864667
H 1.126042482 -1.617066613 3.605394999
H -3.299945905 0.136576649 0.851735318
H -2.721367758 -2.418746544 -3.051315073
H -1.569677327 0.333221341 -4.628657999
H 4.440082928 0.524413796 0.878710875
H 2.772358635 2.873434359 -0.272063984

