15

C 3.357664887 -0.466049907 -1.370601804
O 2.280304471 -0.124566532 0.972740378
C 0.180552050 1.114803015 1.019882884
C -1.674692885 -1.324057132 -2.253403634
C -1.411738194 0.953407686 3.315051071
H 0.821433975 -1.125990666 -2.281000117
H 5.002379629 -1.679224240 -1.210118004
H 3.707101118 1.301327506 -2.376512261
H -0.000694815 2.720741030 -0.246255748
H -2.393995195 -2.658286111 -0.856543518
H -1.654043129 -2.295782537 -4.080650027
H -2.995640567 0.245865066 -2.437990192
H -3.401017302 1.053650079 2.769380918
H -1.048960289 2.515940828 4.620005944
H -1.080547363 -0.825547021 4.297367636

