13

O 1.891696334 -1.482608555 -1.429761022
C 3.624488830 -0.276754983 0.601187019
C 2.103555835 0.674793382 2.715213581
C -0.203586602 0.293486051 2.396784600
C -2.413773333 -0.404364522 1.229640670
C -3.906353330 1.476660718 -0.161030442
O -5.944755887 1.078479965 -1.098337906
H 2.035202854 -0.613536625 -3.020405805
H 4.668792512 1.189716520 -0.395714131
H 4.867048064 -1.830436856 1.111351562
H -3.393253041 -2.122117557 1.782002986
H -0.135408231 -1.158246779 -0.598043838
H -2.973304363 3.348468440 -0.360974615

