9

C -3.184835524 0.546625996 0.238927164
N -0.989043612 1.066408810 0.618585104
C -0.038646543 3.641068399 0.680493514
H -1.511605609 5.047271358 0.332725874
H 0.815806995 3.981240228 2.523869192
H 1.440807549 3.833220173 -0.739977444
C -5.520774307 -0.155219874 -0.159928240
H -6.808947222 -0.378445303 1.408066645
H -6.166969784 -0.532590093 -2.059506017

