15

C 3.152033791 -2.914087546 -0.241512838
O 0.575844299 -2.667241485 -1.018445237
C -0.760500928 -0.099592044 -0.330751299
N 0.651316275 1.765149501 -0.431209820
C -0.418676514 4.243860381 0.012790044
C -3.075023029 -1.118825712 0.552230527
H 4.171729762 -1.285789403 -0.970458325
H 3.879851660 -4.662016313 -1.041959534
H 3.272738384 -2.946195335 1.818398110
H -2.482030089 4.272128303 -0.140555675
H 0.108787640 4.895621177 1.899477792
H 0.374101579 5.574575736 -1.346468301
H -4.164091016 0.050726259 1.831776653
H -4.198181279 -2.065344269 -0.886701431
H -0.914268736 -3.273640558 0.331427594

