14

O 2.950019895 -1.347015376 -2.060833758
C 2.057140458 -0.511601850 0.290357704
C 0.819340386 2.043895745 0.588203712
C -1.874283207 1.797819030 -0.141144514
C -2.364295144 -0.882873790 -0.993636610
C -0.502745384 -1.547965678 1.114868040
N -1.050848182 1.001194456 2.427179050
H 4.679901607 -0.851214925 -2.257047158
H 3.454062443 -0.799538437 1.788309777
H 1.709765824 3.860036974 0.893822901
H -3.057869513 3.444706579 -0.405078442
H -1.902615814 -1.440747550 -2.922036471
H -4.276004660 -1.465972238 -0.496470926
H -0.641568709 -3.300722922 2.173506694

