9

C -1.524804155 0.746500004 0.658234374
N 0.576940605 1.957675498 -0.061345820
C 1.597976014 -1.235109348 -0.144441462
O 2.992837819 -1.950868270 1.494660869
H -1.674602726 0.257502586 2.648297189
H -3.298268395 0.824331266 -0.393618935
H -0.689535381 -1.963465581 -0.059690609
H 0.432912917 2.621041045 -1.855653871
H 1.800345008 -1.216717286 -2.202787338

