12

C -2.565456509 2.764499283 1.312105521
N 1.167891185 -0.239834742 -0.293981273
C 3.134546095 -1.911776035 -1.180581017
C -1.025051323 -1.123861436 -0.115556715
O -3.026454101 0.196074600 0.671479086
H -1.836743628 3.797635704 -0.316593263
H -1.189708999 2.898955054 2.841893375
H -4.378360391 3.530043115 1.904289110
H 4.605426216 -2.075191783 0.257229388
H 2.458144556 -3.819548364 -1.642014645
H 4.013095398 -1.108698292 -2.865600632
H -1.575629681 -3.063776173 -0.574288412

