12

O 4.466919817 -1.251987456 1.490972237
N 3.042579833 0.932670379 1.002456812
C 0.832477686 0.314317466 0.322399314
C -1.276306568 2.019272406 -0.543230857
N -2.948833147 -0.179764827 -1.000593278
C -0.617514555 -1.987531527 0.029081600
H 6.050784622 -0.577385824 2.052513180
H -0.845898804 2.970961556 -2.318150432
H -2.040857784 3.375193741 0.804621913
H -3.630702457 -0.516555219 -2.748103452
H -0.118928610 -3.568319083 -1.169645040
H -3.048145643 -1.458784230 0.732990465

