12

N 3.743372275 0.113806772 0.745377563
C 1.186257263 0.266563955 -0.006727236
C -0.449618946 2.461075974 0.165876436
C -2.904955501 1.308724650 0.047219550
C -2.724055402 -1.275230842 0.065350018
N -0.271845286 -1.962567527 0.074172960
H 4.921879035 -0.453098083 -0.642555996
H 4.309186116 1.808952049 1.411257353
H 0.863297702 1.242368523 -2.017280767
H -4.670153210 2.331687863 -0.000076987
H -4.194801390 -2.694781673 -0.007796821
H 0.408814411 -3.728331661 0.204970221

