13

C 2.466683132 -0.617117448 1.085094044
C 1.166959399 1.036691601 -0.770185529
C 0.985886352 -1.776163600 -0.993244001
C -1.463143544 -0.452513137 -0.953834745
N -3.071360532 -0.194865572 1.197091876
C -2.094831801 2.298321517 1.380993824
H 4.500552576 -0.769494853 0.900383275
H 1.783452519 -0.649767645 3.022135075
H 1.940578352 2.340328050 -2.127231817
H 1.640268935 -2.915045335 -2.548081554
H -2.414103166 -0.256455016 -2.757855516
H -2.462795587 -1.277109059 2.655465884
H -2.958848733 3.329124334 -0.217552226

