14

C 3.343331560 -0.499568792 1.337044085
O 1.404894154 1.131061897 1.900750636
C 0.018633626 1.784462181 -0.012748981
C -0.965555110 -2.003812254 -1.210533838
O -3.138632476 -1.072300353 0.118152953
C -2.766657482 1.574852399 0.307377655
H 4.366275176 -1.021553950 3.035954415
H 1.299420205 -1.887365176 -0.143693263
H 4.528183528 0.100024942 -0.247235382
H 0.940338963 2.516245905 -1.694948028
H -1.054980011 -4.062770024 -1.031840050
H -1.041282124 -1.574945997 -3.236157878
H -3.453093637 2.240977513 2.137616958
H -3.756942682 2.593249675 -1.201157792

