16

C -3.374601009 -1.927633879 -0.186019348
C -1.006304427 -0.308887584 0.027157802
C -1.556085869 2.444340938 -0.595834105
H -2.327581034 2.627952700 -2.503669608
H 0.158580374 3.586649502 -0.478556493
H -2.938496175 3.234102517 0.720727352
C 0.523249782 -0.718997157 2.427903798
H 0.093480386 -0.350924957 4.397791122
C 2.520846387 -1.663662950 1.233054328
H 4.337606689 -2.361387479 1.867419854
C 1.362857688 -1.426346816 -1.364518889
H 1.018357403 -3.202014136 -2.361639549
H 2.304257071 -0.113324154 -2.651272109
H -4.173333345 -1.821037981 -2.088888613
H -2.961562682 -3.906566378 0.229227350
H -4.824884495 -1.290658358 1.140062492

