16

C -4.542204295 -0.746819386 0.236375769
C -1.930125105 0.283479479 0.031013202
C -1.040356026 2.683832978 0.759374576
C 1.519935446 2.969227128 0.267510140
C 2.246130286 0.509499208 -0.927572408
C 4.420504477 -0.850144698 0.372411918
N -0.066463614 -1.048264643 -0.953091667
H -4.535614820 -2.674166009 0.969159366
H -5.683843744 0.434095715 1.473017307
H -5.432573268 -0.775940633 -1.625741873
H -2.272499562 4.068954342 1.628729228
H 2.741810551 0.928599191 -2.897568902
H 4.864309624 -2.642200082 -0.553021699
H 6.090508592 0.349589733 0.327898758
H 3.948905616 -1.220725660 2.345615881
H -0.232503512 -2.826478293 -1.601872950

