11

N 3.207550883 -0.573344569 -0.681126610
C 0.738148019 0.048377253 -0.010658811
C -0.255253944 2.254119046 0.774090270
O -2.814481291 2.108139404 0.998462441
C -3.665557681 -0.297582883 0.562564986
C -1.434894860 -1.602833517 -0.216080583
H 4.501551977 0.720675347 -0.157915871
H 3.739452473 -2.313984474 -0.121966118
H 0.593790423 4.057733602 1.201572832
H -3.141898547 -0.859711323 -1.809904301
H -1.407246466 -3.616230160 -0.577369440

