12

O 2.432065145 -2.383140910 2.028913071
C 1.194817741 -1.439561425 -0.138114035
C -1.702594767 -1.233202690 0.278402068
C -1.306324301 1.511593458 -0.285791086
O -3.108472561 3.278870507 -0.457031718
C 1.197980746 1.391700105 -0.573424883
H 4.219087678 -2.195827175 1.800967824
H 1.698486030 -2.568325491 -1.801023231
H -2.248155940 -1.659170542 2.218467624
H -2.893857555 -2.278394978 -1.041179663
H -2.358250571 4.873587896 -0.895322078
H 2.668206417 2.739382309 -1.020745204

