12

O 2.538501739 -2.361466243 1.550820695
C 1.031748871 -1.203779314 -0.307746850
C -1.802071254 -1.208895521 0.489351137
C -1.639224370 1.611386115 0.164190668
O -3.158870272 3.373451640 -0.514370412
C 0.961108206 1.684230975 -0.321035386
H 4.282515183 -2.135276532 1.113133083
H 1.343737458 -2.069688523 -2.161137737
H -1.967219314 -1.776258918 2.462120483
H -3.166497830 -2.211670261 -0.680160866
H -0.942328751 3.219612419 -1.734976887
H 2.406600065 3.090773424 0.002210847

