15

C 3.688002090 0.230149423 0.428363553
C 1.840619815 -1.068507200 -1.306772525
O 0.233671041 -2.855998744 0.072776188
C -1.846798898 -1.504197145 -0.742214181
N -4.133001563 -1.525559138 0.122594093
C -0.511704462 0.301531636 -2.086476094
N -2.575526519 1.969210235 1.961361636
H 2.659729087 1.121292882 1.973435852
H 4.735320075 1.669585144 -0.614031129
H 5.031236484 -1.140187158 1.180608815
H 2.791139980 -2.037456957 -2.868272364
H -4.310571852 -2.810503626 1.544335193
H -0.967584506 1.796355305 -3.389030504
H -3.643875228 2.500625353 0.454099903
H -3.060834285 3.293517585 3.316510072

