9

O -3.538456818 -0.212946321 -0.729766668
C -1.227394012 0.167933914 0.225743111
N 0.613560606 -1.373562722 -1.002420454
C 3.074386172 -0.770048278 -0.208908429
N 2.809862177 0.319792362 -2.244188913
N -0.681681245 1.605067154 2.036411769
H -3.392529011 -1.416344288 -2.089317051
H 4.354942394 -1.124221447 1.337527288
H -2.230076779 2.505839826 2.721586135

