10

O -0.532005279 2.932499374 -0.730251496
C -0.284662145 0.553963217 -0.142718863
C -2.769665473 -0.823411366 0.080608913
O -4.711974965 0.296499427 -0.275584033
C 1.943796650 -0.695163987 0.253590229
C 4.284767849 0.591283569 0.049018192
H -2.334415456 3.272331148 -0.891207142
H 1.707065519 -2.695221715 0.717398921
H -2.700808199 -2.842234471 0.574790644
H 5.793971087 -0.806514474 0.400769639

