10

O -0.762818356 3.139603663 -0.256371433
C -0.342513899 0.677266939 -0.314251949
C -2.585690468 -0.949942552 -0.263249413
O -4.674694014 -0.015205077 -0.280199746
C 2.090974700 -0.349641379 -0.147129484
C 4.413049337 -0.667490441 -0.667217565
H -2.581288086 3.343480432 -0.047619152
H 1.061549814 -1.095893621 1.733257916
H -2.250074163 -3.004309440 -0.264688666
H 5.967343519 -1.253805788 0.516780153

