14

O 2.109958303 1.786592224 3.151666125
C 2.458794281 2.364566849 0.980904920
C 0.840875062 1.755960160 -1.231469547
C 0.121588702 -0.868050628 -1.939339750
C -0.430729792 -2.526985030 0.336780470
C -2.420430082 -0.525528829 1.045518247
N -1.833720633 1.025279375 -1.255580260
H 4.173074944 3.450570551 0.446910213
H 1.259129014 2.961823710 -2.836971073
H 0.392059230 -1.513089951 -3.864417888
H 1.116825966 -2.830438781 1.659752219
H -1.247832855 -4.339282536 -0.189727520
H -2.186187946 0.464742387 2.827908022
H -4.353404176 -1.206159500 0.868065840

