14

O 1.708956435 2.184768894 3.199811585
C 2.389385359 2.284925437 1.037372734
C 0.885672135 1.675350226 -1.263229871
C 0.585223369 -1.010022444 -2.169610211
C -0.105259521 -2.562733924 0.200734438
C -2.296244575 -0.805338668 0.850356744
N -1.810538361 1.132522523 -1.186225610
H 4.346181511 2.868080614 0.564479883
H 1.317795430 3.002276227 -2.773079301
H -1.655542098 -0.232652063 -3.039314197
H 1.395528879 -2.655921534 1.612155781
H -0.673115343 -4.480624961 -0.271288251
H -2.311663323 0.070563715 2.707144848
H -4.135730214 -1.642618677 0.470002874

