15

C 4.452060277 -0.694864749 -0.116231234
C 1.712526279 -0.149222979 0.326131335
C -0.402113877 -1.420985814 -0.634814695
C -2.453543413 0.211208321 -0.419189027
N -4.918315748 -0.242209826 -1.199864690
C -1.553484491 2.429327687 0.702551097
N 0.954935114 2.336375574 1.109165395
H 5.628730581 0.382552339 1.186311668
H 4.850698343 -2.701258710 0.133836980
H 4.984830498 -0.165296253 -2.038209522
H -0.406779724 -3.306182228 -1.419330074
H -6.246308669 0.771642130 -0.293922937
H -5.393027404 -2.078399064 -1.322742392
H -2.642002057 4.038810546 1.334228715
H 1.447690687 0.554858323 2.648515376

