16

C -4.183110070 -1.493662432 2.532386226
C -1.901489065 -0.491839850 1.198090804
C 4.422418392 2.685351789 -0.461004357
C 2.245527350 2.027841029 -1.502892308
C 1.489737433 -0.619825860 -2.152818293
C -0.817458162 -1.570475736 -0.785145546
H -3.770553094 -1.870141891 4.521428154
H -5.728302537 -0.122850925 2.491224060
H -4.856167323 -3.243094571 1.673328370
H -1.096009688 1.244060282 1.948923326
H 4.867390577 4.641371830 -0.052171068
H 5.844206621 1.287258060 0.018173534
H 0.864198005 3.485772803 -1.942027829
H 3.072004456 -1.906447328 -1.797990901
H 1.123598631 -0.728823903 -4.189389441
H -1.615335586 -3.318336606 -1.520132601

