13

O -2.508670579 -0.796625481 2.591089453
C -1.883077992 0.271000011 -0.597866695
C -0.358458275 2.376710115 0.157606220
N 1.851538955 1.449957886 -1.437940021
C 2.685827792 -0.848352576 -0.241521701
C 0.355143638 -0.935701254 -1.811467407
H -1.725864798 -2.401784702 2.968697570
H -3.802559726 0.124988206 -1.291660498
H -1.058506127 0.853533071 2.557003140
H -0.885731283 4.343087991 -0.034489108
H 2.576581326 -0.997519771 1.802089187
H 4.336977127 -1.698631236 -1.110601398
H 0.287752414 -1.931382888 -3.596923338

