12

C -3.399477062 0.077422911 0.167103209
C -0.604939373 -0.065608249 0.074902281
C 1.306345711 1.680440128 0.633651456
C 3.869180697 0.372897426 0.402227828
C 3.060839576 -1.913015242 -0.475739705
O 0.449352778 -2.188518546 -0.610955864
H -3.998615806 2.002962690 0.569933443
H -4.138722312 -1.165927533 1.639403705
H -4.218985028 -0.521094492 -1.628183853
H 0.986008901 3.496833918 1.510697161
H 2.454563903 2.000320003 -1.261548695
H 4.046492075 -3.620542269 -0.989836144

