13

C -3.845006187 0.961528028 -0.253271092
C -1.233551477 -0.026107266 -0.305019598
C -0.236940381 -2.334274955 -0.264206181
N 2.376218749 -2.049841882 -0.360180023
C 2.971714140 0.465231391 -0.456549441
N 5.156207285 1.420437832 -0.554751422
O 0.707698654 1.726754840 -0.424247068
H -4.259677559 2.047751297 -1.958096113
H -5.178402534 -0.601931514 -0.130709843
H -4.133735797 2.199033152 1.372373252
H -1.149201076 -4.149121607 -0.179225764
H 3.692847405 -3.407083530 -0.352342970
H 5.070057411 3.330393474 -0.611555398

