13

C -4.028334131 0.926356559 -0.266621988
C -1.404442831 -0.031239497 -0.285927827
C -0.342458852 -2.337570221 -0.261184981
N 2.252698218 -2.033635912 -0.474274543
C 2.656106746 0.432835136 -0.439401122
N 5.089146933 0.856222038 -0.217956948
O 0.539118662 1.779094244 -0.422990475
H -4.466951885 1.961113004 -1.998156342
H -5.328410392 -0.663291319 -0.116982608
H -4.359637136 2.187751166 1.332380714
H -1.268857513 -4.148177028 -0.188383642
H 4.699423234 -1.814360937 -0.321625490
H 5.900825707 2.467675805 -0.816656370

