19

C 4.177716206 0.619475203 -0.526696359
C 1.805813082 0.162918108 1.037958360
C -0.669836744 0.450073029 -0.419970258
C -0.829299904 -1.366017064 -2.662793694
C -3.056637449 -0.813896897 3.574600986
C -2.970511121 0.065462759 1.236915303
O -0.695378660 3.000708623 -1.316635459
H 4.095511457 2.450940050 -1.466036110
H 4.447081566 -0.830945005 -1.968686535
H 5.847333381 0.594655294 0.683367674
H 1.752241463 1.500967414 2.610210741
H 1.866651113 -1.731177328 1.860603385
H 0.647086142 -0.947059113 -4.037216108
H -0.636462404 -3.323297099 -2.041047040
H -2.656943423 -1.187292417 -3.610894291
H -1.377254679 -1.375612564 4.602028507
H -4.840945220 -0.998900329 4.560150419
H -4.739104969 0.592539765 0.321459932
H -2.174187902 3.244695434 -2.337602384

