19

C 4.009840213 0.674293021 -0.545069372
C 1.961377547 -0.564109761 1.085840789
C -0.523941459 -0.623085203 -0.226020221
C -0.675021151 -1.970594951 -2.686204717
C -3.117861797 0.023536312 3.342323145
C -2.712535858 0.528852460 0.809357397
O -1.390252631 3.507464478 -0.094178205
H 3.458504585 2.613649117 -0.962753496
H 4.303845107 -0.333756436 -2.320476477
H 5.798439666 0.681149098 0.477269589
H 1.801301663 0.453611049 2.862389742
H 2.509851053 -2.520613553 1.494285343
H -0.249265345 -0.616111074 -4.189480243
H 0.704951049 -3.495710420 -2.823211335
H -2.569346264 -2.702586847 -3.021151246
H -1.577828717 -0.288515769 4.642861048
H -5.011478150 0.029630792 4.109847429
H -4.375846072 0.482209673 -0.392706424
H -2.351865281 4.228931507 -1.463201899

