13

C -3.204734397 1.060731525 -0.854346485
C -1.457526390 -0.709358779 0.557368522
C 0.456918505 1.137441952 2.608007547
C 1.801028144 0.245894262 0.874881307
C 3.734441486 -0.483588493 -0.965621231
H -4.022191897 2.444022821 0.431907450
H -4.730870356 0.000549041 -1.757287409
H -2.183906688 2.088519152 -2.322357151
H -0.745078079 -2.180397542 -0.718144399
H -2.388178164 -1.737181045 2.070674374
H 5.491381847 0.457813422 -0.444319946
H 4.066928593 -2.519103568 -0.967102569
H 3.229187396 0.117208694 -2.873237374

