13

O 3.805801211 0.127642534 -0.885479534
C 1.638415661 -0.846053271 -0.277907376
C -0.308527591 -0.334357823 2.245650711
C -2.610961870 -0.128414525 0.475480018
C -0.432899972 0.753315963 -1.096104194
H 2.808280382 1.009338779 -3.079954591
H 1.351827753 -2.882070162 -0.581259404
H 0.116471777 1.336858004 3.348027340
H -0.188796641 -2.073954391 3.318613602
H -4.050952055 1.256010853 0.925458617
H -3.403949344 -1.958641148 -0.006646658
H -0.039936829 2.745255899 -0.802809118
H 1.180869881 1.207880813 -3.871250760

