13

C 3.221330048 0.556100969 0.141416370
C 0.578316439 0.010346628 -0.713721722
C -0.911667680 -2.109671537 0.398142693
N -3.398132162 -1.591210359 -0.231622333
C -3.594051125 0.802351653 -0.475478979
O -1.241519167 1.949091172 0.369674083
H 3.907296190 2.339080415 -0.628536987
H 3.353328627 0.592701695 2.197434406
H 4.443409167 -0.955990072 -0.547398365
H 0.323923019 0.236672569 -2.768539196
H -0.288883699 -4.056235559 0.356406108
H -1.034651150 0.688408198 2.091096285
H -5.234919575 2.002820583 -0.377746728

