11

C 6.792913387 0.329176571 0.116745995
C 4.545065397 -0.001240549 0.452517408
C 2.049646995 -0.466376849 1.019940502
C 0.211357760 0.341142960 -0.722536236
C -2.238620004 -0.119046850 -0.164307227
C -4.907326084 -0.070773985 -0.600345959
O -3.594299510 -1.153651229 1.613200724
H 8.774272803 0.591652160 -0.106517474
H 0.571889593 1.309893729 -2.503231342
H -5.771006493 -1.465702271 -1.826029126
H -5.984163593 1.621989633 -0.189124187

