28

C     4.49851  -0.93358  -0.90796
N     3.57165  -0.14663  -0.12612
C     2.81595   0.83616  -0.69397
O     2.98518   1.23697  -1.85689
N     1.89648   1.33546   0.20899
N     0.93811   2.00101  -0.31173
C    -0.02515   2.61067  -0.66125
C    -1.17142   3.42175  -1.00404
C    -1.12605  -0.01468  -0.27871
Br   -2.53502   0.61258   0.78698
C    -1.23792  -0.16587  -1.81455
C    -1.68900  -1.64829  -1.95148
C    -0.62206  -2.36209  -1.58621
C     0.46472  -1.30554  -1.23947
O     0.14445  -0.27136  -2.18154
C    -0.06997  -0.67490   0.06561
Br    0.39330  -1.33124   1.76327
H     5.13965  -0.26946  -1.50397
H     3.99699  -1.63453  -1.59429
H     5.14031  -1.51250  -0.22572
H     3.22412  -0.53828   0.75184
H    -1.80517   2.96295  -1.77799
H    -0.70129   4.30857  -1.32436
H    -1.78296   3.57020  -0.09849
H    -1.75855   0.59594  -2.42393
H    -2.69751  -1.94844  -2.16160
H    -0.51614  -3.41510  -1.40716
H     1.52066  -1.60897  -1.30282
28

C     4.49885  -0.93356  -0.90751
N     3.57043  -0.14775  -0.12595
C     2.81381   0.83294  -0.69453
O     2.98538   1.23791  -1.85474
N     1.88402   1.32384   0.20463
N     0.94102   2.00898  -0.31271
C    -0.03845   2.58345  -0.65717
C    -1.16984   3.41391  -1.00108
C    -1.11655   0.00757  -0.28307
Br   -2.53393   0.61077   0.78628
C    -1.23656  -0.16342  -1.81540
C    -1.68904  -1.64470  -1.94555
C    -0.62219  -2.35895  -1.58011
C     0.46619  -1.30369  -1.23935
O     0.14537  -0.27173  -2.18383
C    -0.05784  -0.66298   0.06433
Br    0.39146  -1.33021   1.76067
H     5.13970  -0.26920  -1.50359
H     3.99722  -1.63443  -1.59430
H     5.14032  -1.51246  -0.22551
H     3.22441  -0.53826   0.75228
H    -1.80528   2.96394  -1.77818
H    -0.69666   4.30446  -1.32212
H    -1.78296   3.56987  -0.09843
H    -1.75815   0.59580  -2.42520
H    -2.69759  -1.94752  -2.15947
H    -0.51655  -3.41415  -1.40478
H     1.52082  -1.60919  -1.30344
28

C     4.49919  -0.93355  -0.90706
N     3.56922  -0.14887  -0.12579
C     2.81166   0.82973  -0.69508
O     2.98558   1.23884  -1.85259
N     1.87156   1.31221   0.20028
N     0.94393   2.01694  -0.31370
C    -0.05174   2.55623  -0.65309
C    -1.16826   3.40607  -0.99811
C    -1.10705   0.02982  -0.28743
Br   -2.53283   0.60896   0.78559
C    -1.23520  -0.16098  -1.81626
C    -1.68908  -1.64111  -1.93962
C    -0.62232  -2.35581  -1.57402
C     0.46767  -1.30183  -1.23923
O     0.14629  -0.27210  -2.18612
C    -0.04570  -0.65106   0.06305
Br    0.38963  -1.32918   1.75807
H     5.13974  -0.26893  -1.50322
H     3.99746  -1.63434  -1.59431
H     5.14032  -1.51242  -0.22529
H     3.22470  -0.53824   0.75271
H    -1.80539   2.96493  -1.77837
H    -0.69204   4.30036  -1.31988
H    -1.78296   3.56953  -0.09836
H    -1.75776   0.59566  -2.42647
H    -2.69768  -1.94660  -2.15735
H    -0.51696  -3.41321  -1.40240
H     1.52098  -1.60941  -1.30406
28

C     4.49953  -0.93353  -0.90660
N     3.56800  -0.14998  -0.12562
C     2.80951   0.82651  -0.69564
O     2.98578   1.23977  -1.85045
N     1.85909   1.30059   0.19592
N     0.94684   2.02491  -0.31468
C    -0.06504   2.52900  -0.64901
C    -1.16669   3.39824  -0.99514
C    -1.09755   0.05208  -0.29179
Br   -2.53174   0.60715   0.78489
C    -1.23384  -0.15853  -1.81712
C    -1.68912  -1.63752  -1.93369
C    -0.62245  -2.35266  -1.56792
C     0.46914  -1.29998  -1.23911
O     0.14721  -0.27247  -2.18841
C    -0.03357  -0.63914   0.06177
Br    0.38779  -1.32814   1.75547
H     5.13978  -0.26867  -1.50284
H     3.99769  -1.63425  -1.59433
H     5.14033  -1.51238  -0.22507
H     3.22500  -0.53821   0.75315
H    -1.80550   2.96592  -1.77856
H    -0.68741   4.29625  -1.31764
H    -1.78295   3.56919  -0.09829
H    -1.75736   0.59552  -2.42774
H    -2.69776  -1.94568  -2.15522
H    -0.51737  -3.41226  -1.40002
H     1.52114  -1.60963  -1.30467
28

C     4.49987  -0.93351  -0.90615
N     3.56678  -0.15110  -0.12545
C     2.80736   0.82329  -0.69619
O     2.98597   1.24071  -1.84830
N     1.84663   1.28896   0.19157
N     0.94974   2.03287  -0.31566
C    -0.07833   2.50178  -0.64493
C    -1.16511   3.39040  -0.99218
C    -1.08805   0.07433  -0.29615
Br   -2.53065   0.60534   0.78419
C    -1.23248  -0.15608  -1.81798
C    -1.68916  -1.63393  -1.92776
C    -0.62258  -2.34952  -1.56182
C     0.47061  -1.29812  -1.23900
O     0.14812  -0.27283  -2.19070
C    -0.02143  -0.62722   0.06048
Br    0.38595  -1.32711   1.75287
H     5.13983  -0.26841  -1.50246
H     3.99793  -1.63415  -1.59434
H     5.14033  -1.51234  -0.22485
H     3.22529  -0.53819   0.75359
H    -1.80561   2.96691  -1.77875
H    -0.68278   4.29215  -1.31541
H    -1.78295   3.56885  -0.09823
H    -1.75696   0.59538  -2.42901
H    -2.69784  -1.94477  -2.15309
H    -0.51778  -3.41132  -1.39764
H     1.52130  -1.60985  -1.30529
28

C     4.50021  -0.93349  -0.90570
N     3.56556  -0.15222  -0.12528
C     2.80522   0.82008  -0.69675
O     2.98617   1.24164  -1.84615
N     1.83417   1.27734   0.18721
N     0.95265   2.04084  -0.31664
C    -0.09163   2.47456  -0.64085
C    -1.16353   3.38256  -0.98921
C    -1.07855   0.09659  -0.30051
Br   -2.52955   0.60353   0.78349
C    -1.23113  -0.15363  -1.81884
C    -1.68920  -1.63034  -1.92183
C    -0.62272  -2.34638  -1.55572
C     0.47209  -1.29627  -1.23888
O     0.14904  -0.27320  -2.19299
C    -0.00929  -0.61530   0.05920
Br    0.38411  -1.32608   1.75026
H     5.13987  -0.26815  -1.50208
H     3.99816  -1.63406  -1.59436
H     5.14034  -1.51230  -0.22463
H     3.22558  -0.53817   0.75403
H    -1.80572   2.96790  -1.77894
H    -0.67815   4.28804  -1.31317
H    -1.78295   3.56851  -0.09816
H    -1.75657   0.59524  -2.43028
H    -2.69792  -1.94385  -2.15097
H    -0.51820  -3.41037  -1.39526
H     1.52146  -1.61007  -1.30591
28

C     4.50055  -0.93347  -0.90524
N     3.56434  -0.15333  -0.12512
C     2.80307   0.81686  -0.69730
O     2.98637   1.24257  -1.84400
N     1.82171   1.26571   0.18285
N     0.95556   2.04881  -0.31763
C    -0.10492   2.44734  -0.63676
C    -1.16195   3.37473  -0.98624
C    -1.06905   0.11884  -0.30487
Br   -2.52846   0.60172   0.78279
C    -1.22977  -0.15118  -1.81970
C    -1.68924  -1.62674  -1.91590
C    -0.62285  -2.34323  -1.54962
C     0.47356  -1.29441  -1.23876
O     0.14996  -0.27357  -2.19528
C     0.00284  -0.60338   0.05792
Br    0.38227  -1.32504   1.74766
H     5.13991  -0.26789  -1.50170
H     3.99840  -1.63397  -1.59437
H     5.14034  -1.51226  -0.22441
H     3.22587  -0.53815   0.75446
H    -1.80583   2.96889  -1.77913
H    -0.67352   4.28394  -1.31093
H    -1.78294   3.56817  -0.09809
H    -1.75617   0.59510  -2.43155
H    -2.69801  -1.94293  -2.14884
H    -0.51861  -3.40943  -1.39288
H     1.52162  -1.61029  -1.30653
28

C     4.50089  -0.93345  -0.90479
N     3.56313  -0.15445  -0.12495
C     2.80092   0.81365  -0.69786
O     2.98657   1.24351  -1.84185
N     1.80924   1.25409   0.17850
N     0.95847   2.05677  -0.31861
C    -0.11822   2.42011  -0.63268
C    -1.16037   3.36689  -0.98328
C    -1.05955   0.14110  -0.30923
Br   -2.52736   0.59991   0.78210
C    -1.22841  -0.14874  -1.82056
C    -1.68928  -1.62315  -1.90997
C    -0.62298  -2.34009  -1.54352
C     0.47503  -1.29256  -1.23864
O     0.15087  -0.27394  -2.19757
C     0.01498  -0.59147   0.05664
Br    0.38044  -1.32401   1.74506
H     5.13996  -0.26763  -1.50133
H     3.99863  -1.63387  -1.59438
H     5.14035  -1.51222  -0.22419
H     3.22617  -0.53813   0.75490
H    -1.80594   2.96988  -1.77932
H    -0.66890   4.27983  -1.30869
H    -1.78294   3.56784  -0.09802
H    -1.75577   0.59496  -2.43282
H    -2.69809  -1.94201  -2.14671
H    -0.51902  -3.40848  -1.39050
H     1.52178  -1.61051  -1.30715
28

C     4.50122  -0.93343  -0.90434
N     3.56191  -0.15557  -0.12478
C     2.79877   0.81043  -0.69841
O     2.98677   1.24444  -1.83970
N     1.79678   1.24246   0.17414
N     0.96137   2.06474  -0.31959
C    -0.13151   2.39289  -0.62860
C    -1.15879   3.35906  -0.98031
C    -1.05005   0.16335  -0.31359
Br   -2.52627   0.59810   0.78140
C    -1.22705  -0.14629  -1.82142
C    -1.68932  -1.61956  -1.90404
C    -0.62311  -2.33695  -1.53742
C     0.47651  -1.29070  -1.23852
O     0.15179  -0.27431  -2.19986
C     0.02711  -0.57955   0.05536
Br    0.37860  -1.32298   1.74246
H     5.14000  -0.26737  -1.50095
H     3.99887  -1.63378  -1.59440
H     5.14036  -1.51218  -0.22397
H     3.22646  -0.53811   0.75534
H    -1.80605   2.97086  -1.77951
H    -0.66427   4.27573  -1.30645
H    -1.78294   3.56750  -0.09796
H    -1.75538   0.59482  -2.43410
H    -2.69817  -1.94109  -2.14459
H    -0.51943  -3.40754  -1.38812
H     1.52194  -1.61073  -1.30777
28

C     4.50156  -0.93341  -0.90388
N     3.56069  -0.15669  -0.12461
C     2.79662   0.80721  -0.69897
O     2.98697   1.24537  -1.83755
N     1.78432   1.23084   0.16979
N     0.96428   2.07271  -0.32057
C    -0.14481   2.36567  -0.62452
C    -1.15722   3.35122  -0.97734
C    -1.04055   0.18561  -0.31795
Br   -2.52518   0.59629   0.78070
C    -1.22569  -0.14384  -1.82228
C    -1.68936  -1.61597  -1.89811
C    -0.62324  -2.33380  -1.53133
C     0.47798  -1.28885  -1.23840
O     0.15271  -0.27468  -2.20215
C     0.03925  -0.56763   0.05408
Br    0.37676  -1.32194   1.73986
H     5.14004  -0.26711  -1.50057
H     3.99910  -1.63369  -1.59441
H     5.14036  -1.51214  -0.22375
H     3.22675  -0.53809   0.75577
H    -1.80616   2.97185  -1.77970
H    -0.65964   4.27162  -1.30421
H    -1.78293   3.56716  -0.09789
H    -1.75498   0.59468  -2.43537
H    -2.69825  -1.94017  -2.14246
H    -0.51984  -3.40659  -1.38574
H     1.52210  -1.61095  -1.30839
28

C     4.50190  -0.93339  -0.90343
N     3.55947  -0.15780  -0.12445
C     2.79448   0.80400  -0.69952
O     2.98716   1.24631  -1.83541
N     1.77186   1.21921   0.16543
N     0.96719   2.08067  -0.32156
C    -0.15810   2.33845  -0.62044
C    -1.15564   3.34338  -0.97438
C    -1.03104   0.20786  -0.32231
Br   -2.52408   0.59448   0.78000
C    -1.22434  -0.14139  -1.82313
C    -1.68940  -1.61238  -1.89218
C    -0.62338  -2.33066  -1.52523
C     0.47945  -1.28699  -1.23829
O     0.15363  -0.27504  -2.20444
C     0.05139  -0.55571   0.05280
Br    0.37492  -1.32091   1.73726
H     5.14009  -0.26685  -1.50019
H     3.99934  -1.63359  -1.59443
H     5.14037  -1.51210  -0.22353
H     3.22704  -0.53806   0.75621
H    -1.80627   2.97284  -1.77989
H    -0.65501   4.26752  -1.30197
H    -1.78293   3.56682  -0.09782
H    -1.75458   0.59454  -2.43664
H    -2.69834  -1.93925  -2.14033
H    -0.52025  -3.40565  -1.38336
H     1.52226  -1.61117  -1.30901
28

C     4.50224  -0.93338  -0.90298
N     3.55825  -0.15892  -0.12428
C     2.79233   0.80078  -0.70008
O     2.98736   1.24724  -1.83326
N     1.75939   1.20759   0.16107
N     0.97010   2.08864  -0.32254
C    -0.17140   2.31123  -0.61636
C    -1.15406   3.33555  -0.97141
C    -1.02154   0.23012  -0.32667
Br   -2.52299   0.59266   0.77930
C    -1.22298  -0.13894  -1.82399
C    -1.68943  -1.60879  -1.88626
C    -0.62351  -2.32752  -1.51913
C     0.48092  -1.28514  -1.23817
O     0.15454  -0.27541  -2.20674
C     0.06352  -0.54379   0.05151
Br    0.37308  -1.31988   1.73465
H     5.14013  -0.26658  -1.49981
H     3.99957  -1.63350  -1.59444
H     5.14037  -1.51206  -0.22331
H     3.22734  -0.53804   0.75665
H    -1.80638   2.97383  -1.78008
H    -0.65039   4.26341  -1.29974
H    -1.78293   3.56648  -0.09776
H    -1.75419   0.59440  -2.43791
H    -2.69842  -1.93833  -2.13820
H    -0.52066  -3.40470  -1.38098
H     1.52242  -1.61139  -1.30963
28

C     4.50258  -0.93336  -0.90252
N     3.55704  -0.16004  -0.12411
C     2.79018   0.79756  -0.70063
O     2.98756   1.24817  -1.83111
N     1.74693   1.19596   0.15672
N     0.97300   2.09661  -0.32352
C    -0.18469   2.28400  -0.61227
C    -1.15248   3.32771  -0.96845
C    -1.01204   0.25237  -0.33103
Br   -2.52189   0.59085   0.77861
C    -1.22162  -0.13650  -1.82485
C    -1.68947  -1.60520  -1.88033
C    -0.62364  -2.32437  -1.51303
C     0.48240  -1.28328  -1.23805
O     0.15546  -0.27578  -2.20903
C     0.07566  -0.53187   0.05023
Br    0.37125  -1.31884   1.73205
H     5.14017  -0.26632  -1.49943
H     3.99981  -1.63340  -1.59445
H     5.14038  -1.51202  -0.22309
H     3.22763  -0.53802   0.75708
H    -1.80649   2.97482  -1.78027
H    -0.64576   4.25931  -1.29750
H    -1.78292   3.56615  -0.09769
H    -1.75379   0.59426  -2.43918
H    -2.69850  -1.93741  -2.13608
H    -0.52108  -3.40376  -1.37860
H     1.52257  -1.61161  -1.31025
28

C     4.50292  -0.93334  -0.90207
N     3.55582  -0.16116  -0.12394
C     2.78803   0.79435  -0.70119
O     2.98776   1.24911  -1.82896
N     1.73447   1.18434   0.15236
N     0.97591   2.10457  -0.32450
C    -0.19798   2.25678  -0.60819
C    -1.15090   3.31987  -0.96548
C    -1.00254   0.27463  -0.33539
Br   -2.52080   0.58904   0.77791
C    -1.22026  -0.13405  -1.82571
C    -1.68951  -1.60161  -1.87440
C    -0.62377  -2.32123  -1.50693
C     0.48387  -1.28143  -1.23793
O     0.15638  -0.27615  -2.21132
C     0.08779  -0.51995   0.04895
Br    0.36941  -1.31781   1.72945
H     5.14022  -0.26606  -1.49906
H     4.00004  -1.63331  -1.59447
H     5.14039  -1.51198  -0.22287
H     3.22792  -0.53800   0.75752
H    -1.80660   2.97581  -1.78046
H    -0.64113   4.25520  -1.29526
H    -1.78292   3.56581  -0.09762
H    -1.75339   0.59412  -2.44045
H    -2.69859  -1.93649  -2.13395
H    -0.52149  -3.40281  -1.37622
H     1.52273  -1.61183  -1.31086
28

C     4.50326  -0.93332  -0.90162
N     3.55460  -0.16227  -0.12378
C     2.78589   0.79113  -0.70174
O     2.98796   1.25004  -1.82681
N     1.72201   1.17271   0.14801
N     0.97882   2.11254  -0.32548
C    -0.21128   2.22956  -0.60411
C    -1.14933   3.31204  -0.96251
C    -0.99304   0.29688  -0.33975
Br   -2.51971   0.58723   0.77721
C    -1.21890  -0.13160  -1.82657
C    -1.68955  -1.59802  -1.86847
C    -0.62390  -2.31809  -1.50083
C     0.48534  -1.27957  -1.23781
O     0.15729  -0.27652  -2.21361
C     0.09993  -0.50803   0.04767
Br    0.36757  -1.31678   1.72685
H     5.14026  -0.26580  -1.49868
H     4.00028  -1.63322  -1.59448
H     5.14039  -1.51193  -0.22266
H     3.22821  -0.53798   0.75796
H    -1.80671   2.97680  -1.78065
H    -0.63650   4.25110  -1.29302
H    -1.78292   3.56547  -0.09755
H    -1.75300   0.59398  -2.44172
H    -2.69867  -1.93557  -2.13182
H    -0.52190  -3.40187  -1.37384
H     1.52289  -1.61205  -1.31148
28

C     4.50360  -0.93330  -0.90116
N     3.55338  -0.16339  -0.12361
C     2.78374   0.78791  -0.70229
O     2.98816   1.25097  -1.82466
N     1.70954   1.16109   0.14365
N     0.98173   2.12050  -0.32647
C    -0.22457   2.20234  -0.60003
C    -1.14775   3.30420  -0.95955
C    -0.98354   0.31914  -0.34411
Br   -2.51861   0.58542   0.77651
C    -1.21755  -0.12915  -1.82743
C    -1.68959  -1.59443  -1.86254
C    -0.62404  -2.31494  -1.49473
C     0.48682  -1.27772  -1.23769
O     0.15821  -0.27688  -2.21590
C     0.11207  -0.49611   0.04639
Br    0.36573  -1.31574   1.72425
H     5.14030  -0.26554  -1.49830
H     4.00051  -1.63312  -1.59450
H     5.14040  -1.51189  -0.22244
H     3.22851  -0.53796   0.75840
H    -1.80682   2.97779  -1.78084
H    -0.63187   4.24699  -1.29078
H    -1.78291   3.56513  -0.09749
H    -1.75260   0.59384  -2.44299
H    -2.69875  -1.93465  -2.12970
H    -0.52231  -3.40092  -1.37146
H     1.52305  -1.61227  -1.31210
28

C     4.50393  -0.93328  -0.90071
N     3.55216  -0.16451  -0.12344
C     2.78159   0.78470  -0.70285
O     2.98835   1.25191  -1.82251
N     1.69708   1.14946   0.13929
N     0.98463   2.12847  -0.32745
C    -0.23787   2.17512  -0.59595
C    -1.14617   3.29637  -0.95658
C    -0.97404   0.34139  -0.34847
Br   -2.51752   0.58361   0.77581
C    -1.21619  -0.12671  -1.82829
C    -1.68963  -1.59084  -1.85661
C    -0.62417  -2.31180  -1.48864
C     0.48829  -1.27586  -1.23758
O     0.15913  -0.27725  -2.21819
C     0.12420  -0.48419   0.04511
Br    0.36389  -1.31471   1.72165
H     5.14035  -0.26528  -1.49792
H     4.00075  -1.63303  -1.59451
H     5.14040  -1.51185  -0.22222
H     3.22880  -0.53794   0.75883
H    -1.80693   2.97878  -1.78103
H    -0.62725   4.24289  -1.28854
H    -1.78291   3.56479  -0.09742
H    -1.75220   0.59370  -2.44426
H    -2.69883  -1.93373  -2.12757
H    -0.52272  -3.39998  -1.36907
H     1.52321  -1.61250  -1.31272
28

C     4.50427  -0.93326  -0.90025
N     3.55095  -0.16563  -0.12327
C     2.77944   0.78148  -0.70340
O     2.98855   1.25284  -1.82037
N     1.68462   1.13783   0.13494
N     0.98754   2.13644  -0.32843
C    -0.25116   2.14789  -0.59187
C    -1.14459   3.28853  -0.95361
C    -0.96454   0.36365  -0.35283
Br   -2.51643   0.58180   0.77512
C    -1.21483  -0.12426  -1.82915
C    -1.68967  -1.58725  -1.85068
C    -0.62430  -2.30866  -1.48254
C     0.48976  -1.27401  -1.23746
O     0.16005  -0.27762  -2.22048
C     0.13634  -0.47227   0.04382
Br    0.36206  -1.31368   1.71904
H     5.14039  -0.26502  -1.49754
H     4.00098  -1.63294  -1.59452
H     5.14041  -1.51181  -0.22200
H     3.22909  -0.53791   0.75927
H    -1.80704   2.97977  -1.78122
H    -0.62262   4.23878  -1.28631
H    -1.78291   3.56445  -0.09735
H    -1.75180   0.59356  -2.44553
H    -2.69892  -1.93281  -2.12544
H    -0.52313  -3.39903  -1.36669
H     1.52337  -1.61272  -1.31334
28

C     4.50461  -0.93324  -0.89980
N     3.54973  -0.16674  -0.12310
C     2.77729   0.77827  -0.70396
O     2.98875   1.25377  -1.81822
N     1.67216   1.12621   0.13058
N     0.99045   2.14440  -0.32941
C    -0.26446   2.12067  -0.58778
C    -1.14301   3.28069  -0.95065
C    -0.95504   0.38590  -0.35719
Br   -2.51533   0.57999   0.77442
C    -1.21347  -0.12181  -1.83001
C    -1.68971  -1.58366  -1.84475
C    -0.62443  -2.30551  -1.47644
C     0.49123  -1.27215  -1.23734
O     0.16096  -0.27799  -2.22277
C     0.14847  -0.46035   0.04254
Br    0.36022  -1.31264   1.71644
H     5.14043  -0.26476  -1.49716
H     4.00122  -1.63284  -1.59454
H     5.14042  -1.51177  -0.22178
H     3.22938  -0.53789   0.75971
H    -1.80715   2.98076  -1.78141
H    -0.61799   4.23468  -1.28407
H    -1.78290   3.56412  -0.09728
H    -1.75141   0.59342  -2.44680
H    -2.69900  -1.93190  -2.12332
H    -0.52354  -3.39809  -1.36431
H     1.52353  -1.61294  -1.31396
28

C     4.50495  -0.93322  -0.89935
N     3.54851  -0.16786  -0.12294
C     2.77515   0.77505  -0.70451
O     2.98895   1.25471  -1.81607
N     1.65969   1.11458   0.12623
N     0.99336   2.15237  -0.33040
C    -0.27775   2.09345  -0.58370
C    -1.14144   3.27286  -0.94768
C    -0.94554   0.40816  -0.36155
Br   -2.51424   0.57818   0.77372
C    -1.21211  -0.11936  -1.83086
C    -1.68975  -1.58007  -1.83882
C    -0.62456  -2.30237  -1.47034
C     0.49271  -1.27030  -1.23722
O     0.16188  -0.27836  -2.22506
C     0.16061  -0.44843   0.04126
Br    0.35838  -1.31161   1.71384
H     5.14048  -0.26450  -1.49679
H     4.00145  -1.63275  -1.59455
H     5.14042  -1.51173  -0.22156
H     3.22968  -0.53787   0.76014
H    -1.80726   2.98175  -1.78161
H    -0.61336   4.23057  -1.28183
H    -1.78290   3.56378  -0.09722
H    -1.75101   0.59328  -2.44808
H    -2.69908  -1.93098  -2.12119
H    -0.52396  -3.39714  -1.36193
H     1.52369  -1.61316  -1.31458
28

C     4.50529  -0.93321  -0.89889
N     3.54729  -0.16898  -0.12277
C     2.77300   0.77183  -0.70507
O     2.98915   1.25564  -1.81392
N     1.64723   1.10296   0.12187
N     0.99626   2.16034  -0.33138
C    -0.29105   2.06623  -0.57962
C    -1.13986   3.26502  -0.94471
C    -0.93604   0.43041  -0.36591
Br   -2.51314   0.57637   0.77302
C    -1.21075  -0.11691  -1.83172
C    -1.68979  -1.57648  -1.83289
C    -0.62470  -2.29923  -1.46424
C     0.49418  -1.26844  -1.23710
O     0.16280  -0.27873  -2.22735
C     0.17275  -0.43651   0.03998
Br    0.35654  -1.31058   1.71124
H     5.14052  -0.26423  -1.49641
H     4.00168  -1.63265  -1.59457
H     5.14043  -1.51169  -0.22134
H     3.22997  -0.53785   0.76058
H    -1.80737   2.98274  -1.78180
H    -0.60874   4.22647  -1.27959
H    -1.78290   3.56344  -0.09715
H    -1.75061   0.59314  -2.44935
H    -2.69916  -1.93006  -2.11906
H    -0.52437  -3.39620  -1.35955
H     1.52385  -1.61338  -1.31520
28

C     4.50495  -0.93322  -0.89935
N     3.54851  -0.16786  -0.12294
C     2.77515   0.77505  -0.70451
O     2.98895   1.25471  -1.81607
N     1.65969   1.11458   0.12623
N     0.99336   2.15237  -0.33040
C    -0.27775   2.09345  -0.58370
C    -1.14144   3.27286  -0.94768
C    -0.94554   0.40816  -0.36155
Br   -2.51424   0.57818   0.77372
C    -1.21211  -0.11936  -1.83086
C    -1.68975  -1.58007  -1.83882
C    -0.62456  -2.30237  -1.47034
C     0.49271  -1.27030  -1.23722
O     0.16188  -0.27836  -2.22506
C     0.16061  -0.44843   0.04126
Br    0.35838  -1.31161   1.71384
H     5.14048  -0.26450  -1.49679
H     4.00145  -1.63275  -1.59455
H     5.14042  -1.51173  -0.22156
H     3.22968  -0.53787   0.76014
H    -1.80726   2.98175  -1.78161
H    -0.61336   4.23057  -1.28183
H    -1.78290   3.56378  -0.09722
H    -1.75101   0.59328  -2.44808
H    -2.69908  -1.93098  -2.12119
H    -0.52396  -3.39714  -1.36193
H     1.52369  -1.61316  -1.31458
28

C     4.50461  -0.93324  -0.89980
N     3.54973  -0.16674  -0.12310
C     2.77729   0.77827  -0.70396
O     2.98875   1.25377  -1.81822
N     1.67216   1.12621   0.13058
N     0.99045   2.14440  -0.32941
C    -0.26446   2.12067  -0.58778
C    -1.14301   3.28069  -0.95065
C    -0.95504   0.38590  -0.35719
Br   -2.51533   0.57999   0.77442
C    -1.21347  -0.12181  -1.83001
C    -1.68971  -1.58366  -1.84475
C    -0.62443  -2.30551  -1.47644
C     0.49123  -1.27215  -1.23734
O     0.16096  -0.27799  -2.22277
C     0.14847  -0.46035   0.04254
Br    0.36022  -1.31264   1.71644
H     5.14043  -0.26476  -1.49716
H     4.00122  -1.63284  -1.59454
H     5.14042  -1.51177  -0.22178
H     3.22938  -0.53789   0.75971
H    -1.80715   2.98076  -1.78141
H    -0.61799   4.23468  -1.28407
H    -1.78290   3.56412  -0.09728
H    -1.75141   0.59342  -2.44680
H    -2.69900  -1.93190  -2.12332
H    -0.52354  -3.39809  -1.36431
H     1.52353  -1.61294  -1.31396
28

C     4.50427  -0.93326  -0.90025
N     3.55095  -0.16563  -0.12327
C     2.77944   0.78148  -0.70340
O     2.98855   1.25284  -1.82037
N     1.68462   1.13783   0.13494
N     0.98754   2.13644  -0.32843
C    -0.25116   2.14789  -0.59187
C    -1.14459   3.28853  -0.95361
C    -0.96454   0.36365  -0.35283
Br   -2.51643   0.58180   0.77512
C    -1.21483  -0.12426  -1.82915
C    -1.68967  -1.58725  -1.85068
C    -0.62430  -2.30866  -1.48254
C     0.48976  -1.27401  -1.23746
O     0.16005  -0.27762  -2.22048
C     0.13634  -0.47227   0.04382
Br    0.36206  -1.31368   1.71904
H     5.14039  -0.26502  -1.49754
H     4.00098  -1.63294  -1.59452
H     5.14041  -1.51181  -0.22200
H     3.22909  -0.53791   0.75927
H    -1.80704   2.97977  -1.78122
H    -0.62262   4.23878  -1.28631
H    -1.78291   3.56445  -0.09735
H    -1.75180   0.59356  -2.44553
H    -2.69892  -1.93281  -2.12544
H    -0.52313  -3.39903  -1.36669
H     1.52337  -1.61272  -1.31334
28

C     4.50393  -0.93328  -0.90071
N     3.55216  -0.16451  -0.12344
C     2.78159   0.78470  -0.70285
O     2.98835   1.25191  -1.82251
N     1.69708   1.14946   0.13929
N     0.98463   2.12847  -0.32745
C    -0.23787   2.17512  -0.59595
C    -1.14617   3.29637  -0.95658
C    -0.97404   0.34139  -0.34847
Br   -2.51752   0.58361   0.77581
C    -1.21619  -0.12671  -1.82829
C    -1.68963  -1.59084  -1.85661
C    -0.62417  -2.31180  -1.48864
C     0.48829  -1.27586  -1.23758
O     0.15913  -0.27725  -2.21819
C     0.12420  -0.48419   0.04511
Br    0.36389  -1.31471   1.72165
H     5.14035  -0.26528  -1.49792
H     4.00075  -1.63303  -1.59451
H     5.14040  -1.51185  -0.22222
H     3.22880  -0.53794   0.75883
H    -1.80693   2.97878  -1.78103
H    -0.62725   4.24289  -1.28854
H    -1.78291   3.56479  -0.09742
H    -1.75220   0.59370  -2.44426
H    -2.69883  -1.93373  -2.12757
H    -0.52272  -3.39998  -1.36907
H     1.52321  -1.61250  -1.31272
28

C     4.50360  -0.93330  -0.90116
N     3.55338  -0.16339  -0.12361
C     2.78374   0.78791  -0.70229
O     2.98816   1.25097  -1.82466
N     1.70954   1.16109   0.14365
N     0.98173   2.12050  -0.32647
C    -0.22457   2.20234  -0.60003
C    -1.14775   3.30420  -0.95955
C    -0.98354   0.31914  -0.34411
Br   -2.51861   0.58542   0.77651
C    -1.21755  -0.12915  -1.82743
C    -1.68959  -1.59443  -1.86254
C    -0.62404  -2.31494  -1.49473
C     0.48682  -1.27772  -1.23769
O     0.15821  -0.27688  -2.21590
C     0.11207  -0.49611   0.04639
Br    0.36573  -1.31574   1.72425
H     5.14030  -0.26554  -1.49830
H     4.00051  -1.63312  -1.59450
H     5.14040  -1.51189  -0.22244
H     3.22851  -0.53796   0.75840
H    -1.80682   2.97779  -1.78084
H    -0.63187   4.24699  -1.29078
H    -1.78291   3.56513  -0.09749
H    -1.75260   0.59384  -2.44299
H    -2.69875  -1.93465  -2.12970
H    -0.52231  -3.40092  -1.37146
H     1.52305  -1.61227  -1.31210
28

C     4.50326  -0.93332  -0.90162
N     3.55460  -0.16227  -0.12378
C     2.78589   0.79113  -0.70174
O     2.98796   1.25004  -1.82681
N     1.72201   1.17271   0.14801
N     0.97882   2.11254  -0.32548
C    -0.21128   2.22956  -0.60411
C    -1.14933   3.31204  -0.96251
C    -0.99304   0.29688  -0.33975
Br   -2.51971   0.58723   0.77721
C    -1.21890  -0.13160  -1.82657
C    -1.68955  -1.59802  -1.86847
C    -0.62390  -2.31809  -1.50083
C     0.48534  -1.27957  -1.23781
O     0.15729  -0.27652  -2.21361
C     0.09993  -0.50803   0.04767
Br    0.36757  -1.31678   1.72685
H     5.14026  -0.26580  -1.49868
H     4.00028  -1.63322  -1.59448
H     5.14039  -1.51193  -0.22266
H     3.22821  -0.53798   0.75796
H    -1.80671   2.97680  -1.78065
H    -0.63650   4.25110  -1.29302
H    -1.78292   3.56547  -0.09755
H    -1.75300   0.59398  -2.44172
H    -2.69867  -1.93557  -2.13182
H    -0.52190  -3.40187  -1.37384
H     1.52289  -1.61205  -1.31148
28

C     4.50292  -0.93334  -0.90207
N     3.55582  -0.16116  -0.12394
C     2.78803   0.79435  -0.70119
O     2.98776   1.24911  -1.82896
N     1.73447   1.18434   0.15236
N     0.97591   2.10457  -0.32450
C    -0.19798   2.25678  -0.60819
C    -1.15090   3.31987  -0.96548
C    -1.00254   0.27463  -0.33539
Br   -2.52080   0.58904   0.77791
C    -1.22026  -0.13405  -1.82571
C    -1.68951  -1.60161  -1.87440
C    -0.62377  -2.32123  -1.50693
C     0.48387  -1.28143  -1.23793
O     0.15638  -0.27615  -2.21132
C     0.08779  -0.51995   0.04895
Br    0.36941  -1.31781   1.72945
H     5.14022  -0.26606  -1.49906
H     4.00004  -1.63331  -1.59447
H     5.14039  -1.51198  -0.22287
H     3.22792  -0.53800   0.75752
H    -1.80660   2.97581  -1.78046
H    -0.64113   4.25520  -1.29526
H    -1.78292   3.56581  -0.09762
H    -1.75339   0.59412  -2.44045
H    -2.69859  -1.93649  -2.13395
H    -0.52149  -3.40281  -1.37622
H     1.52273  -1.61183  -1.31086
28

C     4.50258  -0.93336  -0.90252
N     3.55704  -0.16004  -0.12411
C     2.79018   0.79756  -0.70063
O     2.98756   1.24817  -1.83111
N     1.74693   1.19596   0.15672
N     0.97300   2.09661  -0.32352
C    -0.18469   2.28400  -0.61227
C    -1.15248   3.32771  -0.96845
C    -1.01204   0.25237  -0.33103
Br   -2.52189   0.59085   0.77861
C    -1.22162  -0.13650  -1.82485
C    -1.68947  -1.60520  -1.88033
C    -0.62364  -2.32437  -1.51303
C     0.48240  -1.28328  -1.23805
O     0.15546  -0.27578  -2.20903
C     0.07566  -0.53187   0.05023
Br    0.37125  -1.31884   1.73205
H     5.14017  -0.26632  -1.49943
H     3.99981  -1.63340  -1.59445
H     5.14038  -1.51202  -0.22309
H     3.22763  -0.53802   0.75708
H    -1.80649   2.97482  -1.78027
H    -0.64576   4.25931  -1.29750
H    -1.78292   3.56615  -0.09769
H    -1.75379   0.59426  -2.43918
H    -2.69850  -1.93741  -2.13608
H    -0.52108  -3.40376  -1.37860
H     1.52257  -1.61161  -1.31025
28

C     4.50224  -0.93338  -0.90298
N     3.55825  -0.15892  -0.12428
C     2.79233   0.80078  -0.70008
O     2.98736   1.24724  -1.83326
N     1.75939   1.20759   0.16107
N     0.97010   2.08864  -0.32254
C    -0.17140   2.31123  -0.61636
C    -1.15406   3.33555  -0.97141
C    -1.02154   0.23012  -0.32667
Br   -2.52299   0.59266   0.77930
C    -1.22298  -0.13894  -1.82399
C    -1.68943  -1.60879  -1.88626
C    -0.62351  -2.32752  -1.51913
C     0.48092  -1.28514  -1.23817
O     0.15454  -0.27541  -2.20674
C     0.06352  -0.54379   0.05151
Br    0.37308  -1.31988   1.73465
H     5.14013  -0.26658  -1.49981
H     3.99957  -1.63350  -1.59444
H     5.14037  -1.51206  -0.22331
H     3.22734  -0.53804   0.75665
H    -1.80638   2.97383  -1.78008
H    -0.65039   4.26341  -1.29974
H    -1.78293   3.56648  -0.09776
H    -1.75419   0.59440  -2.43791
H    -2.69842  -1.93833  -2.13820
H    -0.52066  -3.40470  -1.38098
H     1.52242  -1.61139  -1.30963
28

C     4.50190  -0.93339  -0.90343
N     3.55947  -0.15780  -0.12445
C     2.79448   0.80400  -0.69952
O     2.98716   1.24631  -1.83541
N     1.77186   1.21921   0.16543
N     0.96719   2.08067  -0.32156
C    -0.15810   2.33845  -0.62044
C    -1.15564   3.34338  -0.97438
C    -1.03104   0.20786  -0.32231
Br   -2.52408   0.59448   0.78000
C    -1.22434  -0.14139  -1.82313
C    -1.68940  -1.61238  -1.89218
C    -0.62338  -2.33066  -1.52523
C     0.47945  -1.28699  -1.23829
O     0.15363  -0.27504  -2.20444
C     0.05139  -0.55571   0.05280
Br    0.37492  -1.32091   1.73726
H     5.14009  -0.26685  -1.50019
H     3.99934  -1.63359  -1.59443
H     5.14037  -1.51210  -0.22353
H     3.22704  -0.53806   0.75621
H    -1.80627   2.97284  -1.77989
H    -0.65501   4.26752  -1.30197
H    -1.78293   3.56682  -0.09782
H    -1.75458   0.59454  -2.43664
H    -2.69834  -1.93925  -2.14033
H    -0.52025  -3.40565  -1.38336
H     1.52226  -1.61117  -1.30901
28

C     4.50156  -0.93341  -0.90388
N     3.56069  -0.15669  -0.12461
C     2.79662   0.80721  -0.69897
O     2.98697   1.24537  -1.83755
N     1.78432   1.23084   0.16979
N     0.96428   2.07271  -0.32057
C    -0.14481   2.36567  -0.62452
C    -1.15722   3.35122  -0.97734
C    -1.04055   0.18561  -0.31795
Br   -2.52518   0.59629   0.78070
C    -1.22569  -0.14384  -1.82228
C    -1.68936  -1.61597  -1.89811
C    -0.62324  -2.33380  -1.53133
C     0.47798  -1.28885  -1.23840
O     0.15271  -0.27468  -2.20215
C     0.03925  -0.56763   0.05408
Br    0.37676  -1.32194   1.73986
H     5.14004  -0.26711  -1.50057
H     3.99910  -1.63369  -1.59441
H     5.14036  -1.51214  -0.22375
H     3.22675  -0.53809   0.75577
H    -1.80616   2.97185  -1.77970
H    -0.65964   4.27162  -1.30421
H    -1.78293   3.56716  -0.09789
H    -1.75498   0.59468  -2.43537
H    -2.69825  -1.94017  -2.14246
H    -0.51984  -3.40659  -1.38574
H     1.52210  -1.61095  -1.30839
28

C     4.50122  -0.93343  -0.90434
N     3.56191  -0.15557  -0.12478
C     2.79877   0.81043  -0.69841
O     2.98677   1.24444  -1.83970
N     1.79678   1.24246   0.17414
N     0.96137   2.06474  -0.31959
C    -0.13151   2.39289  -0.62860
C    -1.15879   3.35906  -0.98031
C    -1.05005   0.16335  -0.31359
Br   -2.52627   0.59810   0.78140
C    -1.22705  -0.14629  -1.82142
C    -1.68932  -1.61956  -1.90404
C    -0.62311  -2.33695  -1.53742
C     0.47651  -1.29070  -1.23852
O     0.15179  -0.27431  -2.19986
C     0.02711  -0.57955   0.05536
Br    0.37860  -1.32298   1.74246
H     5.14000  -0.26737  -1.50095
H     3.99887  -1.63378  -1.59440
H     5.14036  -1.51218  -0.22397
H     3.22646  -0.53811   0.75534
H    -1.80605   2.97086  -1.77951
H    -0.66427   4.27573  -1.30645
H    -1.78294   3.56750  -0.09796
H    -1.75538   0.59482  -2.43410
H    -2.69817  -1.94109  -2.14459
H    -0.51943  -3.40754  -1.38812
H     1.52194  -1.61073  -1.30777
28

C     4.50089  -0.93345  -0.90479
N     3.56313  -0.15445  -0.12495
C     2.80092   0.81365  -0.69786
O     2.98657   1.24351  -1.84185
N     1.80924   1.25409   0.17850
N     0.95847   2.05677  -0.31861
C    -0.11822   2.42011  -0.63268
C    -1.16037   3.36689  -0.98328
C    -1.05955   0.14110  -0.30923
Br   -2.52736   0.59991   0.78210
C    -1.22841  -0.14874  -1.82056
C    -1.68928  -1.62315  -1.90997
C    -0.62298  -2.34009  -1.54352
C     0.47503  -1.29256  -1.23864
O     0.15087  -0.27394  -2.19757
C     0.01498  -0.59147   0.05664
Br    0.38044  -1.32401   1.74506
H     5.13996  -0.26763  -1.50133
H     3.99863  -1.63387  -1.59438
H     5.14035  -1.51222  -0.22419
H     3.22617  -0.53813   0.75490
H    -1.80594   2.96988  -1.77932
H    -0.66890   4.27983  -1.30869
H    -1.78294   3.56784  -0.09802
H    -1.75577   0.59496  -2.43282
H    -2.69809  -1.94201  -2.14671
H    -0.51902  -3.40848  -1.39050
H     1.52178  -1.61051  -1.30715
28

C     4.50055  -0.93347  -0.90524
N     3.56434  -0.15333  -0.12512
C     2.80307   0.81686  -0.69730
O     2.98637   1.24257  -1.84400
N     1.82171   1.26571   0.18285
N     0.95556   2.04881  -0.31763
C    -0.10492   2.44734  -0.63676
C    -1.16195   3.37473  -0.98624
C    -1.06905   0.11884  -0.30487
Br   -2.52846   0.60172   0.78279
C    -1.22977  -0.15118  -1.81970
C    -1.68924  -1.62674  -1.91590
C    -0.62285  -2.34323  -1.54962
C     0.47356  -1.29441  -1.23876
O     0.14996  -0.27357  -2.19528
C     0.00284  -0.60338   0.05792
Br    0.38227  -1.32504   1.74766
H     5.13991  -0.26789  -1.50170
H     3.99840  -1.63397  -1.59437
H     5.14034  -1.51226  -0.22441
H     3.22587  -0.53815   0.75446
H    -1.80583   2.96889  -1.77913
H    -0.67352   4.28394  -1.31093
H    -1.78294   3.56817  -0.09809
H    -1.75617   0.59510  -2.43155
H    -2.69801  -1.94293  -2.14884
H    -0.51861  -3.40943  -1.39288
H     1.52162  -1.61029  -1.30653
28

C     4.50021  -0.93349  -0.90570
N     3.56556  -0.15222  -0.12528
C     2.80522   0.82008  -0.69675
O     2.98617   1.24164  -1.84615
N     1.83417   1.27734   0.18721
N     0.95265   2.04084  -0.31664
C    -0.09163   2.47456  -0.64085
C    -1.16353   3.38256  -0.98921
C    -1.07855   0.09659  -0.30051
Br   -2.52955   0.60353   0.78349
C    -1.23113  -0.15363  -1.81884
C    -1.68920  -1.63034  -1.92183
C    -0.62272  -2.34638  -1.55572
C     0.47209  -1.29627  -1.23888
O     0.14904  -0.27320  -2.19299
C    -0.00929  -0.61530   0.05920
Br    0.38411  -1.32608   1.75026
H     5.13987  -0.26815  -1.50208
H     3.99816  -1.63406  -1.59436
H     5.14034  -1.51230  -0.22463
H     3.22558  -0.53817   0.75403
H    -1.80572   2.96790  -1.77894
H    -0.67815   4.28804  -1.31317
H    -1.78295   3.56851  -0.09816
H    -1.75657   0.59524  -2.43028
H    -2.69792  -1.94385  -2.15097
H    -0.51820  -3.41037  -1.39526
H     1.52146  -1.61007  -1.30591
28

C     4.49987  -0.93351  -0.90615
N     3.56678  -0.15110  -0.12545
C     2.80736   0.82329  -0.69619
O     2.98597   1.24071  -1.84830
N     1.84663   1.28896   0.19157
N     0.94974   2.03287  -0.31566
C    -0.07833   2.50178  -0.64493
C    -1.16511   3.39040  -0.99218
C    -1.08805   0.07433  -0.29615
Br   -2.53065   0.60534   0.78419
C    -1.23248  -0.15608  -1.81798
C    -1.68916  -1.63393  -1.92776
C    -0.62258  -2.34952  -1.56182
C     0.47061  -1.29812  -1.23900
O     0.14812  -0.27283  -2.19070
C    -0.02143  -0.62722   0.06048
Br    0.38595  -1.32711   1.75287
H     5.13983  -0.26841  -1.50246
H     3.99793  -1.63415  -1.59434
H     5.14033  -1.51234  -0.22485
H     3.22529  -0.53819   0.75359
H    -1.80561   2.96691  -1.77875
H    -0.68278   4.29215  -1.31541
H    -1.78295   3.56885  -0.09823
H    -1.75696   0.59538  -2.42901
H    -2.69784  -1.94477  -2.15309
H    -0.51778  -3.41132  -1.39764
H     1.52130  -1.60985  -1.30529
28

C     4.49953  -0.93353  -0.90660
N     3.56800  -0.14998  -0.12562
C     2.80951   0.82651  -0.69564
O     2.98578   1.23977  -1.85045
N     1.85909   1.30059   0.19592
N     0.94684   2.02491  -0.31468
C    -0.06504   2.52900  -0.64901
C    -1.16669   3.39824  -0.99514
C    -1.09755   0.05208  -0.29179
Br   -2.53174   0.60715   0.78489
C    -1.23384  -0.15853  -1.81712
C    -1.68912  -1.63752  -1.93369
C    -0.62245  -2.35266  -1.56792
C     0.46914  -1.29998  -1.23911
O     0.14721  -0.27247  -2.18841
C    -0.03357  -0.63914   0.06177
Br    0.38779  -1.32814   1.75547
H     5.13978  -0.26867  -1.50284
H     3.99769  -1.63425  -1.59433
H     5.14033  -1.51238  -0.22507
H     3.22500  -0.53821   0.75315
H    -1.80550   2.96592  -1.77856
H    -0.68741   4.29625  -1.31764
H    -1.78295   3.56919  -0.09829
H    -1.75736   0.59552  -2.42774
H    -2.69776  -1.94568  -2.15522
H    -0.51737  -3.41226  -1.40002
H     1.52114  -1.60963  -1.30467
28

C     4.49919  -0.93355  -0.90706
N     3.56922  -0.14887  -0.12579
C     2.81166   0.82973  -0.69508
O     2.98558   1.23884  -1.85259
N     1.87156   1.31221   0.20028
N     0.94393   2.01694  -0.31370
C    -0.05174   2.55623  -0.65309
C    -1.16826   3.40607  -0.99811
C    -1.10705   0.02982  -0.28743
Br   -2.53283   0.60896   0.78559
C    -1.23520  -0.16098  -1.81626
C    -1.68908  -1.64111  -1.93962
C    -0.62232  -2.35581  -1.57402
C     0.46767  -1.30183  -1.23923
O     0.14629  -0.27210  -2.18612
C    -0.04570  -0.65106   0.06305
Br    0.38963  -1.32918   1.75807
H     5.13974  -0.26893  -1.50322
H     3.99746  -1.63434  -1.59431
H     5.14032  -1.51242  -0.22529
H     3.22470  -0.53824   0.75271
H    -1.80539   2.96493  -1.77837
H    -0.69204   4.30036  -1.31988
H    -1.78296   3.56953  -0.09836
H    -1.75776   0.59566  -2.42647
H    -2.69768  -1.94660  -2.15735
H    -0.51696  -3.41321  -1.40240
H     1.52098  -1.60941  -1.30406
28

C     4.49885  -0.93356  -0.90751
N     3.57043  -0.14775  -0.12595
C     2.81381   0.83294  -0.69453
O     2.98538   1.23791  -1.85474
N     1.88402   1.32384   0.20463
N     0.94102   2.00898  -0.31271
C    -0.03845   2.58345  -0.65717
C    -1.16984   3.41391  -1.00108
C    -1.11655   0.00757  -0.28307
Br   -2.53393   0.61077   0.78628
C    -1.23656  -0.16342  -1.81540
C    -1.68904  -1.64470  -1.94555
C    -0.62219  -2.35895  -1.58011
C     0.46619  -1.30369  -1.23935
O     0.14537  -0.27173  -2.18383
C    -0.05784  -0.66298   0.06433
Br    0.39146  -1.33021   1.76067
H     5.13970  -0.26920  -1.50359
H     3.99722  -1.63443  -1.59430
H     5.14032  -1.51246  -0.22551
H     3.22441  -0.53826   0.75228
H    -1.80528   2.96394  -1.77818
H    -0.69666   4.30446  -1.32212
H    -1.78296   3.56987  -0.09843
H    -1.75815   0.59580  -2.42520
H    -2.69759  -1.94752  -2.15947
H    -0.51655  -3.41415  -1.40478
H     1.52082  -1.60919  -1.30344
