9

O -0.994061156 -2.496322674 -0.796393025
C 1.156810870 -1.472718995 0.521740967
C 0.651956250 1.272519538 0.521905355
C -1.537018249 1.664585628 -0.667325752
C -2.618839684 -0.769021892 -1.532369163
H 2.862898815 -2.014380567 -0.506798185
H 1.902220918 2.650867897 1.367011513
H -2.451948805 3.459458121 -0.993007029
H 1.220540372 -2.314540053 2.405844363

