17

O 3.822613462 0.233279018 2.560940347
C 2.878033858 -1.020798059 0.401118804
C 0.037097686 -0.621350019 0.283365887
C -0.625617568 2.122162854 0.014802206
C -2.452323330 3.286473159 1.270033944
O -3.746232017 -2.019734085 -1.980944131
C -1.090019408 -2.119038267 -1.928229068
H 5.622271837 0.048390708 2.609003509
H 3.755484342 -0.276971942 -1.329492589
H 3.282409605 -3.053646542 0.490421365
H -0.796043029 -1.354680030 2.028019230
H 0.452633891 3.169703788 -1.391612176
H -4.239697957 -0.273751471 -1.858315475
H -2.888620520 5.259145694 0.940425740
H -3.543313188 2.314187922 2.708487290
H -0.286439943 -1.430433802 -3.717741258
H -0.591561869 -4.113665697 -1.747473287

