17

O 4.483736149 0.276990972 1.936782006
C 3.019425359 -1.008097966 0.103002244
C 0.251126895 -0.654578793 0.728200973
C -0.604975051 2.050594881 0.574099458
C -3.258983332 2.154113417 0.530775295
O -2.918869366 -0.004771804 -2.518868845
C -1.537820437 -1.926326189 -1.326596867
H 6.234891000 0.116419620 1.507784847
H 3.388663085 -0.258271439 -1.799578667
H 3.473282961 -3.032529400 0.084652171
H -0.120765575 -1.496653000 2.578477289
H 0.585483206 3.672768989 0.917224136
H -1.265354717 1.765554829 -1.848760679
H -4.213423640 3.901579296 0.037636069
H -4.464556714 0.720866058 1.370561780
H -0.393813463 -2.927532966 -2.731698173
H -2.801899911 -3.307832544 -0.447916303

