14

C -3.838043245 0.913726669 1.509172265
O -3.143433552 -1.172225442 -0.005949652
C -0.614563880 -1.587425843 -0.357358038
C 1.395941917 0.290783497 -0.144467030
O 0.993998247 -1.608756504 1.756256847
C 3.810867359 0.122036151 -1.616547070
H -3.546118240 2.701253891 0.508712270
H -5.843562584 0.696476119 1.907539326
H -2.792971824 0.932400999 3.289954148
H 0.878568900 2.176896182 0.489164621
H -0.386639760 -3.177648216 -1.636372017
H 5.406043214 0.731985528 -0.459430669
H 3.723557835 1.333373047 -3.284570753
H 4.161619576 -1.815267892 -2.225868340

