11

C 2.165109601 -0.592696026 2.316807933
N -0.177274868 -0.171743979 1.671479500
C -1.634480307 1.764141087 -1.785826393
O 0.731200214 1.660698991 -2.551476901
C -1.649103442 -1.637982763 0.331771071
O -3.038817124 -0.275687892 -1.329784438
H 1.919208819 1.155025136 -1.170538597
H 3.153099256 -2.310176732 1.755074464
H 3.007621789 0.617232325 3.735809875
H -2.702213154 3.433379107 -2.293032532
H -1.727077378 -3.678352941 0.219469447

