14

C 2.865639674 -0.855845831 -2.238161386
C 0.553076557 -0.287644303 -1.480954591
C -0.486945497 2.290315541 -0.847140940
H 0.826820980 3.437516833 0.248361886
H -0.949662116 3.310237051 -2.582616885
C -2.902502259 1.622361153 0.583145123
H -4.405676344 3.016139087 0.392381599
H -2.508280256 1.339191287 2.602936713
O -3.747702904 -0.658926883 -0.529641969
C -1.580149414 -2.140665446 -1.035297040
H -1.975730301 -3.333337233 -2.669868148
H -1.144072246 -3.369550074 0.581361902
H 4.300394240 0.584272799 -2.481958015
H 3.408387460 -2.787589790 -2.653440834

