14

O -3.248199704 -0.165043483 -1.981528869
C -1.944286581 -0.250597904 0.320899987
C 0.424039765 -1.880220008 0.228079040
N 1.778601479 0.318673889 1.820305032
C -0.381649863 2.019342836 1.209801493
C 3.142290703 -0.278008760 -0.327418351
O 3.016765815 0.829807711 -2.551024009
H -4.847987228 0.650135971 -1.737848534
H -3.172401296 -0.914921920 1.846040022
H 0.502870030 -3.784219896 0.975083449
H 1.322381304 -0.950841041 -2.201244528
H -1.057058653 2.972623702 2.898379765
H 0.061448716 3.355744642 -0.291585913
H 4.710683659 -1.560256835 0.101742193

