11

C -1.639980770 -2.068173945 -0.140957676
C -0.010039699 0.025159058 0.004251865
N -0.668208178 2.549624497 -0.359222272
O -3.209149156 2.566588474 -0.970260074
C 2.697904162 -0.362099304 0.179813374
C 4.922197794 -0.726577585 0.301261329
H -3.627756204 -1.803065250 -0.493159805
H -0.889287748 -3.914360780 0.287531108
H -0.825134494 0.540977718 1.989234869
H -3.663682317 4.316452774 -0.802832588
H 6.907257672 -1.038890826 0.400891338

