14

O 5.011757508 -1.177404407 -0.469286479
C 3.288602446 -0.375189966 -1.706630995
C 0.550615605 -0.902516908 -1.153348836
C -0.493980664 -0.973876481 1.548016398
C -3.015890929 -0.360653683 0.243218032
N -1.200043061 1.386342599 -1.156553622
C -0.116490258 1.906139851 1.468540791
H 1.805795129 2.647599880 1.463827228
H 3.629637370 0.783023308 -3.422625583
H -0.092539076 -2.377692452 -2.460479482
H -0.078982407 -2.314384510 3.056060704
H -3.871664912 -1.799475054 -0.960640688
H -4.438184849 0.659306453 1.330778339
H -1.352123023 3.069833709 2.636891614

