14

O 4.629817478 0.490249986 0.204175648
C 2.989139474 0.115593886 -1.561778952
C 0.351078459 -0.810348880 -1.334570377
C -0.612006192 -0.940922379 1.395751942
C -3.220916689 -0.414293219 0.279224099
N -1.547913427 1.324798055 -1.279230938
C -0.099162358 1.935967383 1.209842349
H 3.463726143 1.127792538 1.565979832
H 3.886100115 -0.058558266 -3.413893499
H -0.061448149 -2.281640092 -2.735397576
H -0.030870736 -2.297103040 2.844922701
H -4.192798356 -1.897043711 -0.792826772
H -4.549335611 0.637656825 1.451834403
H -1.213389649 3.145046245 2.471186217

