12

C -3.087545942 0.208194774 0.279673155
C -0.439937426 0.599390532 -0.811933283
C 0.940502708 2.761591826 0.446535726
O 3.131128204 1.834794810 1.144047169
C 3.385809220 -0.756800504 0.535342441
C 1.343695052 -1.594313328 -0.612790410
H -4.174247860 1.951306838 0.143646700
H -2.983502440 -0.331965656 2.266562704
H -4.084174612 -1.279402223 -0.740733939
H -0.627145752 1.207181974 -2.792122713
H 5.151042928 -1.605204896 1.096774234
H 1.026497001 -3.494485783 -1.279513093

