12

C -3.298729034 0.136079934 0.135139228
C -0.480461166 0.366269344 -0.040036286
C 0.880823211 2.671687104 0.444584716
O 3.369449597 1.909555985 0.462601157
C 3.568714281 -0.633068286 0.239043930
C 1.313977540 -1.720213817 -0.099791429
H -4.174422791 1.994381331 -0.006091740
H -3.801415289 -0.666216539 1.965961399
H -4.063210198 -1.093439037 -1.331532076
H -0.050011791 1.856845910 -1.832003722
H 5.456452584 -1.401111943 0.332419342
H 0.917273609 -3.700657322 -0.360886100

