12

O 3.238124176 2.984134005 1.360356257
C 3.768008672 0.886994754 0.707192302
C 1.824323875 -1.170541677 0.088150867
O 2.537879735 -3.100881607 -0.896768304
N -0.592569547 -0.682567791 0.836764643
C -2.821374786 -1.292494302 -0.584210211
C -2.178210279 1.382513107 0.046929043
H 5.732797308 0.238417807 0.413093243
H -4.303815306 -2.246665551 0.454600189
H -2.536470019 -1.931293561 -2.510290150
H -1.487885275 2.583069852 -1.461396171
H -3.180808556 2.349314945 1.545578273

