12

C -3.032128419 -0.414582441 -1.125990099
C -0.492858941 0.386315823 -0.195723017
C 0.120266744 2.726126825 0.967845250
O 2.513813809 2.326624663 1.907737709
C 3.320271137 -0.136099512 1.630042701
O 5.281147435 -0.948458852 2.370642961
N 1.415676119 -1.336167989 0.329557370
H -2.905701773 -1.520969787 -2.860250742
H -3.954756529 -1.559286933 0.318063640
H -4.184398448 1.255767758 -1.466898733
H 0.207240973 2.223146548 -1.600569455
H 1.603785315 -3.099976995 -0.340123698

