10

N -3.023454822 0.058828289 -0.652069728
C -0.606163273 -0.616211608 -0.128560638
N 0.107860843 -2.906538411 0.097600084
O 2.911163686 -2.681026584 0.530487414
C 3.758884092 -0.431309106 0.566445274
C 1.519749119 1.243987055 0.125150287
H -3.569817541 1.831346967 -0.265680451
H -4.359085184 -1.283899337 -0.513134626
H 1.801903125 2.386597937 -1.572514902
H 1.287792361 2.552386785 1.707707402

