12

C 5.966892423 0.772804198 0.661641909
C 3.705755028 0.627036621 0.717150138
C 1.015121473 0.486400632 0.826988523
C -0.371887349 -0.803611628 -0.824494349
C -3.196369317 -0.978461864 -0.759431438
O -4.367215013 0.574585590 1.051893654
H 7.973547713 0.894089655 0.605593275
H -4.085226226 2.307315385 0.596306764
H 0.101451289 1.472814388 2.375679194
H 0.554168932 -1.823261509 -2.346673523
H -3.743176707 -2.917807680 -0.295986386
H -3.935865977 -0.604609445 -2.663494385

