16

C -2.814671965 -2.561955243 -0.726253818
C -1.034004845 -0.515639155 -1.587365579
C -0.582458114 1.789280302 0.074064357
C 1.969393142 2.391549700 -0.954556790
C 1.643817273 -0.441690657 -0.639980130
N 2.486851631 -1.969570568 1.147405288
O 3.782377413 -0.743335261 2.799675854
H -4.774465789 -1.973583572 -0.987976370
H -2.501303104 -3.011715579 1.260009022
H -2.518177885 -4.285447905 -1.815717344
H -1.245499195 -0.021254354 -3.583911799
H -1.973169004 2.896082141 1.081619821
H 0.452910434 1.471063330 3.007636907
H 3.293992455 3.366453965 0.263930432
H 2.048742628 2.978356621 -2.926552104
H 1.926730061 0.870902564 3.601566943

