13

O 4.665115030 -1.489588183 -1.956512863
C 2.647903993 -1.652022842 -0.205524931
C 1.579224507 0.973088314 0.132536036
H 3.013894338 2.232081514 0.923060498
C 0.091777743 2.093172282 -2.051827455
H 0.685235026 2.579842483 -3.946527528
C -2.134549139 2.242971042 -0.856178518
H -3.998450607 2.891813968 -1.386997975
C -1.028521918 1.142550052 1.481982319
O -1.761015763 0.551471348 3.531616369
H 3.297072179 -2.362655466 1.628208797
H 1.162905426 -2.926617866 -0.897977615
H 5.396424659 -3.132430225 -2.166992921

