15

O 4.256709366 1.027996990 0.540269109
C 2.658011817 -0.972131168 -0.254456649
C 0.048294975 -0.494199173 0.773092910
C -1.281312018 1.721522887 -0.572415485
C -3.188457184 -0.094664243 -1.597503847
C -2.075335100 -2.189056721 -0.360909023
O -2.386792673 -4.451651434 -0.196850030
H 5.943086560 0.696912305 -0.030303497
H 3.308488185 -2.801746446 0.459941311
H 2.576730634 -1.088984877 -2.324409072
H 0.101691794 -0.361856626 2.834491148
H -1.752638267 3.203766687 1.368463938
H -0.331596063 3.180644357 -1.668428292
H -4.740329852 0.232271624 -2.879592051
H -3.148824072 2.444003111 0.579191798

