13

O -0.190363791 3.073822769 1.930822622
C 5.030947299 -0.924814655 0.769782847
C 2.735946428 -0.054961456 0.865415896
C 0.399173879 0.725770729 1.029981410
C -1.787303857 -0.971487754 0.374556587
C -3.722833503 0.202341329 -1.346644367
O -3.878547049 2.428606058 -1.790567338
H -1.525974840 3.729900758 0.867867645
H 5.902008015 -1.818322124 2.397980703
H 6.163121810 -0.769060121 -0.933111857
H -2.820276685 -1.503940747 2.097200101
H -1.122253581 -2.733221707 -0.467149860
H -5.100532061 -1.130548080 -2.186634659

