13

C -3.250864596 -0.530068291 0.484829438
C -0.773384552 0.307546426 -0.666675988
N -0.806452548 -0.148746409 -3.436860606
O 1.236983560 -0.390933861 -4.364235727
C 1.705854903 0.308343040 0.629579417
N 3.430838163 -1.267148388 1.665548160
C 0.732166450 2.518007980 0.251661423
H -3.598093041 -2.537704784 0.154464796
H -3.235242778 -0.197392344 2.516756792
H -4.822552100 0.518504188 -0.342686961
H 5.088542977 -0.490073447 2.177509530
H 3.588924033 -2.975360196 0.851063275
H 0.709326691 4.536927178 0.448750560

