14

C -3.360163464 1.160721885 -0.047815362
C -0.691586074 0.201578503 -0.044073402
C 1.260089505 2.206756992 -0.174204573
N 3.283906079 2.134891671 1.095734242
C 2.375534536 -3.418967735 -0.130521891
O 2.690077162 -5.661788203 0.134437932
C -0.157703598 -2.266347502 0.034100184
H -3.737990354 2.249017504 -1.763573772
H -3.685478191 2.425464690 1.552640841
H -4.713396058 -0.385242138 0.053040342
H 0.770855267 3.802579832 -1.405339770
H 4.360606962 3.692906345 0.759133938
H -1.688475111 -3.627850331 0.159896682
H 3.969903289 -2.149992718 -0.549650446

