9

O 3.154830056 0.113017509 -2.345507241
C 1.132676479 -0.051645232 -0.876609840
C -0.169564350 1.241182947 0.862094003
C -1.897482411 -1.020642686 0.906692258
O -0.261359176 -2.192983912 -1.018061774
H 3.966213561 1.712248187 -2.067908325
H -0.064381949 3.036642011 1.800961531
H -3.796953872 -0.789988895 0.142836423
H -1.905692988 -2.185863102 2.605535502

