9

O 3.453749448 0.047195986 -2.064156690
C 1.598550925 -0.474404424 -0.648206901
C 0.073174013 1.355674328 0.519063169
C -1.820659658 -0.813292298 0.628242965
O 0.079840683 -2.478795029 -0.627385313
H 1.866312682 1.942512033 -1.743051781
H 0.584706472 2.617854986 2.034902803
H -3.477910938 -0.711732123 -0.586078470
H -2.276601779 -1.556664314 2.491426658

