16

C -4.488510637 -0.197939287 0.989945446
C -2.146326082 -0.601517683 -0.630860708
C 0.181539734 0.736642663 0.418640893
C 2.493907509 0.293100339 -1.165800335
C 5.021386041 0.105723166 -0.084056454
O 3.705367294 -2.087525100 -0.885731907
H -6.134886883 -1.141182495 0.182411994
H -4.210923494 -0.942764918 2.895797888
H -4.938700640 1.810384121 1.165271703
H -2.506973359 0.069468071 -2.555106101
H -0.167476127 2.775013001 0.530085488
H 0.560869126 0.084795904 2.344563096
H 2.349957546 0.906393473 -3.127134098
H 6.661500207 0.607146573 -1.212506901
H 5.258533196 0.291277547 1.948145118
H -1.737670937 -2.621260253 -0.788580860

