14

C -0.091636845 2.597406732 -0.198207005
C -1.966700169 0.329607977 -0.001746976
C -0.808635918 -2.328220178 -0.499348639
C 1.567547700 -2.428924080 1.108643263
C 3.022966271 -0.510924874 0.521365743
C 2.624151270 1.692651652 -0.535916786
H -0.548055158 3.754303698 -1.847724165
H -0.312492803 3.826425965 1.444247152
H -3.527456571 0.639293668 -1.317636315
H -2.794946399 0.296632785 1.888299835
H -0.365674874 -2.560352528 -2.498903926
H -2.169797917 -3.790407974 0.014908503
H 1.678945298 -3.545086563 2.820017811
H 3.869386337 2.620756093 -1.867955251

