14

C -0.939847521 2.446675146 -0.365613080
C -1.774768359 0.052833039 0.596689358
C -1.026248710 -2.375126506 -0.640625641
C 1.386939072 -2.373131409 0.859436424
C 3.030502083 -0.499115371 0.260353445
C 3.579160839 1.674063493 -0.428175109
H -0.623217994 2.677167498 -2.368836364
H -0.920528908 4.093060936 0.842140895
H -3.359534903 1.632661408 -0.436630953
H -2.369582843 -0.018676617 2.553190107
H -0.775276111 -2.199881847 -2.676719369
H -2.274806294 -3.947927153 -0.206930566
H 1.473773216 -3.408374440 2.618744121
H 4.771036692 2.838936067 -1.576983821

