12

C 2.442048813 -1.208151347 1.422932421
C -0.345198293 0.729986216 -2.035624169
C -1.920737815 -1.137018219 -0.682920584
N 0.134218913 0.124236624 0.717043973
C -1.377959528 3.195648008 -2.300095044
N -2.128317635 5.224275541 -2.593999858
H 3.943691200 0.168255961 1.713855890
H 2.956662093 -2.436964165 -0.140716302
H 2.136888752 -2.307622352 3.140262101
H -3.786525853 -0.690272639 0.055746883
H -1.597729442 -3.135475292 -1.017168160
H -0.489107967 1.375616362 2.025590139

