9

O 1.613153500 1.695532501 -2.033455198
C 3.070606361 0.400875615 -0.102228571
H 3.031121214 1.296509630 1.742202595
H 4.883222381 -0.316750186 -0.739071528
C 0.786759447 -0.585527237 -1.170174598
C -1.032703126 -2.163395393 -1.496870469
C -2.839629332 -3.801729361 -1.820041982
H -2.675261842 -5.305779996 -3.204459499
H -4.571168146 -3.717496236 -0.724757628

