16

C -2.149375344 -0.444417362 2.325705122
C -0.790597179 0.479625246 -0.019300094
C 0.266481052 -4.189752042 -3.077923437
C -0.835236195 3.320864946 -0.611220785
O 1.895380771 3.445359253 -0.308432821
C 2.020025424 0.918297387 0.214820097
N 3.870508041 -0.466615899 0.695370175
H -1.712856074 0.745840565 3.953548352
H -4.191093181 -0.433747004 2.036529366
H -1.577639556 -2.371953542 2.777233656
H 0.363663828 -5.269159693 -1.285008209
H -1.263398189 -0.697600695 -1.665599901
H 2.291189671 -3.848975028 -3.476763704
H -1.781693638 4.507485982 0.783113996
H -1.384841250 3.855626618 -2.521409223
H 5.524473144 0.512298573 0.691736629

