10

C -3.399545111 -0.055067148 -0.290280754
C -0.891174677 -0.058221857 -0.463350925
N 0.932624100 0.115934490 1.411952848
C 3.222951848 0.055448590 0.242929679
N 3.055910906 -0.166526616 -2.151419027
O 0.443031607 -0.249923480 -2.657297425
H -4.309834311 0.090407313 1.528251734
H -4.532857350 -0.201647743 -1.976638919
H 0.591637269 0.371858020 3.254462861
H 5.006767667 0.167629932 1.222328620

