16

C -2.219323916 2.306020053 0.144213467
C -1.977783677 -0.506181303 -0.304988550
C 0.517894203 -2.115961850 2.103838066
C 1.046063547 -1.572388933 -0.387704413
C 3.095311941 0.528303703 -1.238914142
O 5.160840931 -0.742998663 -1.450555814
H -0.967362708 3.382800021 -1.079022260
H -1.827170540 2.826656589 2.097949528
H -4.162159584 2.865409637 -0.267874007
H -2.364021266 -1.034427671 -2.261851428
H -3.367521075 -1.567390702 0.799067763
H 0.139146204 -4.017064371 2.781157955
H 0.477488117 -0.608808511 3.493452046
H 1.161585207 -3.178671559 -1.657849529
H 2.282140189 1.394690427 -2.994585703
H 2.987887568 2.007657242 0.269394632

