15

C -0.192511465 -2.858783558 -0.136036338
C -0.609544276 -0.222441684 0.973342312
C 0.611745637 1.862298262 -0.660650578
C 3.353731951 1.613238519 -0.828095751
C 5.603139022 1.392009472 -0.936284008
C -3.307587428 0.309877536 1.284780516
C -5.518322406 0.745469196 1.497808851
H -1.073949970 -3.006268953 -1.995469605
H 1.823945174 -3.236931834 -0.332516776
H -1.020208200 -4.298567518 1.081972425
H 0.268870139 -0.145896702 2.844063688
H -0.205382030 1.800282420 -2.557635442
H 0.145234561 3.711286521 0.127824514
H 7.603078774 1.206310602 -1.042418114
H -7.482239481 1.128117723 1.702758719

