11

N 5.947051413 2.222226195 2.290555404
C 4.154284245 1.744776251 1.163361058
C 1.943274349 1.156743369 -0.277302701
C -0.132038585 0.195272185 0.760812487
C -2.469616875 -0.422132464 -0.706998567
O -3.287210473 -2.921734455 -0.264886842
H -2.003847706 -4.065252217 -0.842038094
H 2.047954084 1.553881560 -2.285971438
H -0.187254681 -0.206543985 2.772515954
H -4.015503627 0.793793235 -0.078547128
H -2.167961198 -0.055521533 -2.724630124

