11

N 5.745847246 0.751691063 2.199162390
C 3.927828026 0.686534931 1.007908597
C 1.674542501 0.551968044 -0.468355354
C -0.726034837 0.525459079 0.798526734
C -2.856340898 -0.274251474 -0.745521919
O -1.610444105 -2.533791483 0.085603006
H 0.526088812 -1.943499755 -0.716969745
H 1.748408361 1.482383356 -2.294366377
H -0.975702996 0.761744009 2.814178614
H -4.746709549 -0.114894479 0.030935686
H -2.764527723 0.069739020 -2.770518382

