12

C 3.011062319 0.636964089 -1.329607919
C 0.653393784 1.328570308 0.095189568
O -0.057626404 3.475876742 0.348086607
C -0.891237491 -0.840635218 1.188586861
C -3.465882378 -0.921806684 -0.055583459
O -4.357850702 -2.791781977 -0.967422027
H 2.540210391 -0.667358519 -2.860425655
H 4.316631920 -0.358031801 -0.076487364
H 3.907285362 2.324386263 -2.085455094
H 0.021362957 -2.675100176 0.997770972
H -1.192778425 -0.415688158 3.189697053
H -4.484571314 0.904605112 -0.076900742

