10

N 2.856306845 -0.892549547 0.617300015
C 0.403170442 -0.081312364 0.154415361
N -1.562312157 -1.693334655 0.007698839
N -3.754218377 -0.456357653 -0.341974402
N -3.232976770 1.911666412 -0.391597986
C -0.702504969 2.247247983 -0.105194761
H 4.082419680 0.554679026 0.768691757
H 3.500450268 -2.175437408 -0.637197319
H -1.565014201 -3.582730323 0.198487969
H 0.150949112 4.094805266 -0.103793094

