10

N 3.068207751 -0.686623540 0.411064111
C 0.558923124 -0.198618512 -0.029224709
N -1.070136163 -2.022171019 -0.647796963
N -3.518278323 -0.781782589 -0.747640095
N -3.221443129 1.597854107 -0.184674695
C -0.778657133 2.065487189 0.137789040
H 4.254514166 0.777496728 0.178595465
H 3.707869990 -2.312102382 -0.338648030
H -2.869496813 -2.400960668 0.799266997
H -0.089372046 3.949547518 0.502829458

