17

C -3.437408929 -0.973777686 0.213574806
C -3.198572359 1.430722609 -1.269057541
C -0.893841780 0.256884343 -0.117465281
C 1.199479167 -0.913825936 -1.727476904
C 3.522302664 -1.051636859 0.030291629
C 2.835698097 0.692049435 2.175216933
C 0.429168462 1.386169727 2.085655216
H -3.790335428 -2.707091406 -0.816073181
H -4.317430915 -0.888891982 2.059124765
H -3.392010999 1.322971087 -3.304548635
H -3.927337737 3.154765900 -0.441306967
H 0.669223717 -2.752248075 -2.494697150
H 1.609045973 0.329885748 -3.324206379
H 3.841524083 -2.969532432 0.740101486
H 5.260548381 -0.483246906 -0.926862041
H 4.162322478 1.230756043 3.637275303
H -0.521199202 2.576437197 3.455146768

