17

C -3.679568734 -0.729988768 -0.035450657
C -2.915949588 1.736419201 -1.234763320
C -0.961388358 -0.032266072 -0.272783081
C 1.062810961 -1.463310728 -1.755732769
C 2.941703645 -1.028075867 0.425959689
C 2.855630928 2.303876669 1.409750202
C 0.872055656 0.425296962 1.887668099
H -4.405840599 -2.209737959 -1.249714947
H -4.525058091 -0.672601224 1.828505026
H -3.126878002 1.920966208 -3.261932949
H -3.221241930 3.466233489 -0.186632017
H 0.638381157 -3.463597170 -2.008440175
H 1.627726274 -0.646743951 -3.561259009
H 4.012014286 -2.494120160 1.368131403
H 4.288507164 0.630388560 -0.229524245
H 4.147637927 2.200377560 3.042178833
H 0.416767645 -0.169371731 3.798830521

