16

C 2.642338939 -0.485793161 1.569655860
C 0.888840790 -1.697473458 -0.313450422
C -1.687988979 -0.880174695 -0.770016436
C -2.941515352 1.287053516 0.579434382
C 1.179172056 1.939027624 -3.651412060
C 0.292509932 -0.467743442 -2.978609013
H 2.367691700 -1.367327495 3.416301425
H 2.318474104 1.532242060 1.791238134
H 4.609757185 -0.760865853 1.022239183
H 1.239819661 -3.698450292 -0.583744091
H -2.994903951 -2.355955575 -1.330016383
H -3.771096107 0.598509787 2.340096898
H -1.634868419 2.800622607 1.055718460
H 1.253392732 3.126017553 -1.937305479
H -4.454701358 2.086665803 -0.567921868
H 0.101282895 -1.883668248 -4.450716870

