14

C 2.711736391 -1.138904071 2.765428404
C 0.998214358 -0.082590216 0.723249229
C -1.398700331 -1.598544746 0.414990622
H -1.125404435 -3.623405299 0.164133296
C -3.838946705 -0.694525695 1.239518703
H -5.237476677 -0.273514840 2.669485384
N -3.565458812 -0.466819328 -1.089477396
C 2.068521485 1.262479045 -1.525174145
H 3.041484075 1.076630377 -3.301298287
C 0.963391732 2.680552092 0.115416648
H 0.366641375 4.534146124 0.702309212
H 1.776601109 -1.104333006 4.608612540
H 4.451360303 -0.042675383 2.900880949
H 3.221439614 -3.102457109 2.367537479

