14

C 3.433548162 1.366862849 -0.168072279
C 1.690563599 -0.596400513 0.907592183
O -0.118240787 0.196092326 2.728452681
C -1.017637946 -0.794104397 0.386519423
C -2.496318460 1.008879311 -1.229115647
O -4.937435525 1.408059729 -0.225041286
H 2.452236951 3.126573435 -0.582011420
H 4.305835915 0.668406656 -1.902934498
H 4.938456600 1.777775650 1.180817346
H 2.626469321 -2.355123150 1.426621167
H -1.890131414 -2.649578480 0.566365187
H -2.763938242 0.198262449 -3.107998693
H -1.482662677 2.799526963 -1.438097757
H -4.740745460 2.060955191 1.456903574

