14

C 3.293461120 1.373009825 -0.159434455
C 1.558064242 -0.540999072 1.127933512
O 0.758028467 0.005772225 3.428809334
C -1.176912719 -0.609057256 0.052129021
C -2.407628888 1.516454098 -0.910804680
O -4.803819510 2.115160492 -0.530138948
H 2.553661537 3.288061474 0.051744915
H 3.601522195 0.946654542 -2.161477604
H 5.119214214 1.318634808 0.795004738
H 2.387897426 -2.450442599 0.859969233
H -2.338696687 -2.054551665 0.928364317
H -1.671618301 -0.728118921 -2.276337898
H -1.386546104 2.925158828 -1.992088110
H -5.497800926 1.079791435 0.800839740

