13

C -3.941875589 -1.037411341 0.223327588
C -0.067694941 -1.276429552 -1.852890676
O -1.431387698 -0.180793349 0.123507983
C 4.504901346 2.777797985 0.981915111
C 3.370139196 1.151953934 -0.482971762
N 2.485527216 -0.379452168 -1.944638013
H -4.841549895 -0.104231832 1.820106346
H -4.978821320 -0.559626802 -1.508353655
H -4.035735867 -3.090428190 0.505068197
H -0.948654250 -0.848085217 -3.683803799
H 0.001289190 -3.341349823 -1.644002485
H 5.452005114 2.141795010 2.674857932
H 4.457750506 4.768989061 0.533653952

