16

C 3.054698023 1.755488673 0.498461979
C 0.462114231 0.641978628 0.419839848
C -0.205418786 -1.898929507 1.568190037
C -1.995433417 2.064555705 -0.045760701
N -2.895730879 -0.004949986 -1.719652134
C -0.615981723 -1.430496957 -1.189461464
O 0.545102971 -2.811682702 -3.051336559
H 4.481296286 0.296041547 0.199030434
H 3.433585654 2.653819932 2.318748795
H 3.291414604 3.174827270 -0.980607496
H 1.420995641 -3.061029494 2.016046549
H 0.130500404 -4.563060880 -2.837391594
H -1.791479396 -2.081497686 2.860335326
H -3.160698846 2.415578815 1.625994851
H -1.753941290 3.826729550 -1.092419908
H -4.515412381 -0.854635178 -1.147974738

