13

O -3.175958498 0.879576577 2.945815103
C -3.121813649 -1.095491544 1.172696796
C -1.554189888 -0.382819717 -1.143421934
C 1.022086021 0.415200042 -0.389279651
O 2.535655301 0.156038466 -2.355411655
C 5.018578494 1.050172567 -2.125657146
O 5.614643561 2.834782374 -0.944547818
H -1.448392191 1.390752559 3.218993552
H -5.073797047 -1.473771478 0.626873934
H -1.574704414 -1.831028623 -2.624773878
H -2.359796084 1.353854220 -1.964145996
H -2.360830444 -2.835649569 2.008757025
H 6.242282286 -0.136197475 -3.303825682

