15

C -3.289465691 1.633357772 -1.242136899
C -1.193922106 -0.253758547 -0.804988010
C -1.677542365 -2.837634443 -1.915370162
H -1.917971011 -2.726827460 -3.964733924
H -0.114114230 -4.127464893 -1.530604726
H -3.393904108 -3.671201386 -1.122333044
C 0.237198234 -0.104111947 1.637087902
H -0.285280671 1.351443194 2.977403462
H 0.871491875 -1.850702392 2.494606292
C 1.472764707 0.706102251 -0.793706647
H 2.934761660 -0.496637260 -1.571128070
H 1.781711534 2.707133793 -1.092288062
H -3.603379720 1.933839627 -3.262348575
H -2.844858639 3.460747671 -0.393910274
H -5.064086443 0.967276121 -0.419668658

