14

C 3.397901597 -1.170788986 -2.129958881
C 2.103336041 0.277525746 -0.011833635
O 2.044406104 2.866513766 -0.644363878
C -0.344835163 -0.967052264 0.692903403
O -2.065726655 0.766984238 0.892125644
C -4.550576121 -0.019147801 1.633751798
H 3.616640930 -3.153317689 -1.619058989
H 5.251398950 -0.349986311 -2.492577236
H 2.282867847 -1.048265455 -3.859918998
H 3.215772703 -0.007469804 1.738123564
H 0.526487128 3.580447081 0.050639577
H -5.852304287 0.518482097 0.133562346
H -5.032539393 0.976653604 3.369077718
H -4.545091418 -2.055799489 1.920344166

