11

C -3.036865452 -0.198866708 0.092891302
N -0.301782270 -0.097527783 0.032659645
C 1.231968945 1.963267746 0.031681485
C 3.741005525 1.185962371 -0.130446018
N 3.330765580 -1.355160039 -0.213619668
N 0.973925274 -2.186993253 -0.120913295
H -3.781543609 -0.328803143 -1.821937718
H -3.621490742 -1.845201286 1.173598630
H -3.738559105 1.511077090 0.990912948
H 0.425926996 3.830177223 0.155550614
H 4.674749156 -2.696114346 -0.330077839

