14

C 2.632525308 -1.889071958 0.771812526
C 0.645459296 -0.125039587 0.051314266
C 0.767132317 1.360347867 -2.286008893
O -1.406416461 1.266865156 -3.528908372
C -1.593249450 0.122851152 1.800954539
O -1.151880008 -0.016286983 4.061448066
N -3.803991552 0.576122485 0.686221992
H 2.619616853 -2.283680939 2.788929397
H 2.204324782 -3.657938192 -0.237360486
H 4.474288653 -1.264622448 0.074895270
H 1.424282139 3.273519710 -1.575038896
H 2.441648097 0.719541681 -3.384336103
H -5.291199833 1.017682487 1.784913126
H -3.693743588 0.920982215 -1.232158597

