15

C -4.486321446 -0.467911987 0.077791181
C -1.845986259 -0.211977382 0.560007185
C -1.072603843 2.050085884 -0.671980808
N 1.593061384 1.754406560 -1.034795922
C 2.336833568 -0.322175401 0.292042357
N 4.855115105 -0.985290729 0.337934677
C 0.307682222 -1.547783470 1.394670622
H -4.923030615 -1.027364159 -1.846446559
H -5.760502337 -1.331193134 1.446264624
H -3.595749743 1.890120057 -1.502155769
H -1.557027255 3.790072548 0.310709544
H 2.775495882 3.194528081 -1.388513044
H 5.194398045 -2.727103228 1.018966518
H 5.817291800 -0.634078099 -1.265535091
H 0.388323109 -3.393053070 2.258515381

