15

C -3.152111534 -2.359002380 -0.396065147
C -1.763310307 0.028768340 -1.073209935
C -1.720589703 1.931507856 0.968818176
N 0.542495905 0.327477632 0.665995063
C 2.872195134 1.368184070 -0.361633978
C 4.574433347 -0.659399749 -1.164518194
N 5.927188502 -2.253599674 -1.727324252
H -3.238519563 -2.774742619 1.655555553
H -2.340312554 -3.997837031 -1.349636823
H -5.099650995 -2.184585534 -1.054605165
H 0.802924013 -0.915919242 2.105687050
H -1.413522757 3.918642654 0.543998672
H -2.621403079 1.619583936 2.804923491
H 2.348477550 2.507366082 -1.994926687
H 3.841201431 2.547547688 1.030660842

