15

C -3.383763516 -1.786314642 0.382064299
C -1.382408889 -0.025122473 -0.586842505
C -1.027380637 2.567137212 0.411480739
N 0.707668948 0.550912556 1.096519007
C 3.187102005 0.690328046 -0.049885255
C 4.289281971 -1.841245390 -0.297183584
N 5.140129665 -3.819555847 -0.530590442
H -3.758496585 -1.418472932 2.374497492
H -2.776035513 -3.747859902 0.192474294
H -5.139729289 -1.547293087 -0.674414606
H -0.882519977 -0.271428563 -2.568291192
H -0.359952954 4.010550202 -0.887522630
H -2.212870086 3.253711355 1.933742362
H 3.172203782 1.556419859 -1.941377404
H 4.426771092 1.828233624 1.145329386

