15

C -3.545961790 -2.388051174 -0.118848107
C -1.957397141 -0.279272854 -1.166308199
C -1.423979197 1.667115197 0.788848521
N 0.832042879 0.057421142 0.941156875
C 2.997480801 1.426192992 -0.139927927
C 5.184597604 -0.248397696 -0.403166096
N 6.897317524 -1.552942442 -0.635944279
H -3.359651348 -2.697420676 1.919801191
H -3.276150190 -4.162671114 -1.125692920
H -5.493806252 -1.772084021 -0.472016944
H 0.405286179 -1.160460347 -0.916293332
H -1.069350037 3.592124341 0.154484752
H -2.517775355 1.611589185 2.530113641
H 2.558027372 2.248155997 -1.992400690
H 3.480965624 2.960784039 1.150860463

