19

C -3.891181758 0.105589751 1.304869911
C -1.475239398 1.552857612 0.696798204
C 0.272122622 0.185560334 -1.159851988
C 1.941909513 2.041387814 -2.614467671
C 1.958401021 -1.788062336 0.048573917
C 1.760905025 -2.736549742 2.632539745
O 3.643511437 -0.952670333 1.967179517
H -5.065935843 -0.091573142 -0.381919924
H -5.010751267 1.082500433 2.735466702
H -3.501126091 -1.796456046 2.003064414
H -0.419711895 1.987469260 2.421921718
H -1.988030018 3.383318883 -0.113366258
H -0.908732444 -0.830513901 -2.528234195
H 0.795268053 3.351117269 -3.720460782
H 3.101672608 3.139115320 -1.307590058
H 2.866643666 -3.038468734 -1.313510438
H 0.301713692 -2.029870708 3.888563562
H 2.450528619 -4.620531798 3.072340185
H 3.212253939 1.055817840 -3.909116393

