19

C -4.196347810 0.002655254 1.586422379
C -2.004805665 1.620186702 0.653234669
C -0.428128924 0.247621945 -1.302936286
C 2.232752272 1.563240372 -1.925005648
C 1.265794230 -1.721096357 -0.561105663
C 2.696179976 -2.047250123 1.849292921
O 5.127351488 -1.832050228 1.227170590
H -5.422785035 -0.574379629 0.029051894
H -5.350137783 1.039369041 2.942685924
H -3.507461606 -1.706184585 2.516985468
H -0.811852516 2.172051737 2.243538772
H -2.715525953 3.365343694 -0.194346994
H -1.457252626 -0.105706423 -3.048663542
H 2.502445349 1.686253133 -3.952295671
H 2.183527987 3.393877444 -0.990115030
H 1.909149542 -3.012900305 -2.023798092
H 1.981052431 -0.737746150 3.324923209
H 2.067415825 -3.968462788 2.498066381
H 3.942703516 0.592549686 -1.056123088

