16

C 5.444706689 -0.434458222 -0.454612472
O 2.986709324 0.479934235 -0.846708325
C 1.210781203 -0.655904115 0.777858592
C -1.290136189 0.574284141 0.410374758
O -3.221602319 -0.936808766 0.182164402
C -5.501190338 -0.121908443 -0.355519429
H 6.684494583 0.558251875 -1.762809359
H 6.088447525 -0.078605275 1.486431074
H 5.568832820 -2.472902901 -0.823221373
H 1.019551180 -2.685479138 0.382887690
H 1.865379044 -0.455951381 2.746524000
H -1.638299575 2.477706585 1.088962068
H -2.330580767 1.815759315 -2.782055405
H -6.865469686 -1.618857128 -0.602645661
H -6.079941168 1.703300031 0.371521271
H -3.829944730 1.564000193 -3.021899313

