14

C 3.719394032 0.579367920 -1.366200594
C 1.416136154 0.346599147 0.265922033
O -2.988953865 -0.919542509 3.303600011
C -3.193815144 -1.329286344 0.688662234
C -1.094540029 -0.079297462 -0.781218468
O -0.384189296 2.358364919 0.101770709
H 3.212235816 1.190522356 -3.268050975
H 5.035745597 1.953864525 -0.571129111
H 4.690487003 -1.237102499 -1.490624698
H 1.736516560 -0.289155101 2.193977964
H -5.011367185 -0.633505380 -0.034654818
H -3.136786498 -3.369314727 0.376672400
H -1.274853992 -0.219707099 -2.827735887
H -2.720532745 0.864112722 3.538614157

