10

C 0.731074869 1.138645368 1.281119625
O 2.096230633 2.396704174 2.985144291
H 3.270391155 1.211345248 3.771384404
C 1.119915272 -1.071649645 0.143142143
O 3.163095435 -2.743063250 0.304713103
C 4.638042038 -2.993881118 2.299165468
O 4.569204966 -1.792161417 4.228638240
H 5.997636471 -4.515954544 1.949856530
H -0.218457027 -1.756872917 -1.231034003
H -0.977177719 2.128065413 0.730690612

