17

C -3.748221199 -0.706408255 0.884384097
C -2.059633252 0.050645945 -1.331455806
O -1.767205580 2.410535552 -1.734381302
C 2.401260492 3.030740037 -0.396328934
C 2.878550264 0.630012788 -1.103797533
C 1.903129291 -1.763650117 1.751067773
C 0.970032457 -1.416788563 -0.682657704
H -5.687540710 -0.139458292 0.468218047
H -3.159320253 0.275666236 2.599596641
H -3.713644313 -2.745791429 1.220173614
H -2.442192886 -1.113673261 -3.030248633
H 3.559015205 4.559498596 -1.111335651
H 1.042775026 3.500244515 1.047064648
H 4.490091563 0.140941330 -2.264122463
H 1.765343690 -0.278010252 3.145594209
H 2.692713992 -3.545401959 2.406190485
H 1.187960587 -3.059476800 -1.895776404

