11

O 0.025192676 2.021092723 2.590621217
C -0.566620810 1.463345764 0.285652721
C -2.144433352 -0.800221516 -0.592602239
C 0.333573492 -2.197535808 -0.411144803
C 2.196061520 -0.410478126 -0.357444040
N 1.209282272 2.007844647 -1.549984113
H -3.004449790 -0.544733038 -2.442908242
H -3.515135425 -1.427766945 0.801422475
H 0.569279636 -4.019430214 0.486630820
H 2.076537363 0.749686762 2.172979668
H 2.344250120 3.422751741 -0.933929938

