15

C -1.876617453 -3.466943346 0.497148450
C -0.545469880 0.704632725 0.285056342
C -1.515070875 2.152298656 -1.907653484
N -0.494053853 3.462305258 0.292179249
C 1.852321339 -0.548619600 0.079787846
O 1.749140460 -2.907890019 -0.027099617
N 4.016438966 0.728441649 0.048696031
H -3.404818486 -2.645120143 -0.579381583
H -1.329057706 -5.314892463 -0.188614396
H -2.132180311 -3.352371329 2.517299654
H -0.408558448 2.373610076 -3.623220427
H -3.548618783 2.150368244 -2.213034794
H -1.880604417 4.167092204 1.404664722
H 3.889762952 2.628891194 0.121833459
H 5.691843144 -0.154290809 0.118630468

