8

N 2.032699364 -0.195202114 -0.080199278
N 0.962807259 2.010424482 0.227702890
C -1.468531210 1.536547820 0.451541894
C -1.975855514 -1.120902559 0.511482835
N 0.417860133 -2.151840435 0.197240920
H 3.919706928 -0.416204658 -0.141976824
H -2.793743853 3.068596940 0.666687175
H -1.088132554 -2.709921951 -1.331422509

