16

C -0.948838800 -1.840356198 2.111595770
C 0.666821497 1.262686877 -1.348098171
C -1.875747631 2.335771674 -2.033256096
C -0.277711449 3.639199478 -0.105027104
C 0.896434767 -1.128609618 0.086194736
N 2.764603898 -2.515294541 -0.523475642
O 2.851903254 -4.721327371 0.909058270
H -2.425348000 -0.428024498 2.349494336
H 0.035333154 -2.080205699 3.907595163
H -1.823124145 -3.653167975 1.664865497
H 2.152886607 1.490098107 -2.734329446
H -2.062519960 3.184735747 -3.883074625
H -3.545126795 1.345607266 -1.387790829
H -0.857646041 3.535171019 1.853781134
H 0.640435535 5.391173356 -0.619449691
H 4.318459758 -5.561237255 0.256828841

