16

C -1.272064152 -2.051496923 1.324244838
C -0.896213802 0.105428671 -2.455948732
C -1.652190366 2.665381919 -1.522621710
C 0.436738951 2.408690517 0.474972703
C 0.708715648 -0.488978521 -0.331311527
N 2.930311336 -1.791582159 -0.480466722
O 3.732005176 -2.327340491 1.988471344
H -2.943199174 -0.951823642 1.796925454
H -0.202857583 -2.533246259 3.025292486
H -1.798474670 -3.779078461 0.340566952
H -1.007140291 -0.747369108 -4.317075514
H -1.307467320 4.188947472 -2.876320273
H -3.603800940 2.845926183 -0.858721503
H -0.013995746 2.717140989 2.457275754
H 2.142275322 3.426753274 -0.041370905
H 5.008846593 -3.586515747 1.727349102

