15

C 4.292913476 1.042247982 -0.142122844
C 1.626570650 0.327321371 -0.915214072
N -0.191430900 1.772573196 0.564159612
C -3.661522794 -1.600472947 -0.269841401
C -2.616615874 0.708944116 1.002682937
O -0.817595129 0.427082035 2.912957320
H 5.675338314 0.027826538 -1.287720495
H 4.615972777 0.564029731 1.837059042
H 4.600506786 3.066653791 -0.374473704
H 1.352788036 -1.710374675 -0.718878954
H 1.277799546 0.840745861 -2.888862953
H -2.255440154 -3.076610115 -0.521462989
H -4.448411385 -1.092208315 -2.109404859
H -5.194705712 -2.361474765 0.879900174
H -4.041445636 2.143545350 1.403046115

