10

O 4.641995799 -1.286434839 -1.270822564
C 2.576405393 -0.504563811 -0.766436010
C 1.721467669 2.167197352 -0.539083098
C -0.687478811 2.136987226 -1.692295438
H -1.749141688 3.792007098 -2.256213751
C -1.732782612 -0.188455489 -1.294905914
H -3.747563839 -0.570926022 -1.373669075
C 0.153735513 -2.087686218 -0.418904944
H -0.040784428 -2.501476146 1.596671857
H 0.118184360 -3.876091464 -1.443869793

