9

N 3.737365573 -0.115096850 0.361819266
C 3.007632485 -0.235968552 -1.746810730
C 0.451305395 1.051588274 -0.240493047
C -1.799285892 -0.580239462 -0.482626471
N -0.876501218 0.217522916 1.971503966
H 0.488685708 3.053065073 -0.624882408
H -3.570767922 0.256304216 -1.081645219
H -1.464815687 -2.502126514 -1.105867936
H 0.051061383 -1.157925696 2.917914657

