14

C -1.634598056 -2.172689973 -1.134047097
C 0.213076579 -0.690759905 0.424727682
C -0.070260452 2.148084832 0.305241867
C -2.320877647 2.949680727 1.870638832
O -4.229048198 3.837162935 1.031035443
H -2.111686269 2.607186518 3.931075086
H -0.354856721 2.796954838 -1.632134098
H 1.610508753 3.054922711 1.092141608
C 1.950030857 -1.772480921 1.874452054
H 3.273406232 -0.662182541 2.975091099
H 2.115587476 -3.810132085 1.999348173
H -3.581144087 -1.654800664 -0.673084276
H -1.373261745 -1.765758371 -3.142813496
H -1.409913928 -4.198614612 -0.844577753

