13

C -4.084001853 -1.242347982 -0.289986354
N -1.952043736 2.132586829 -0.141364251
C 0.043964157 0.734674646 -0.270220159
O -0.289429149 -1.617852021 -0.462623531
O 2.366450906 1.725333199 -0.193424032
C 4.405421760 -0.024220053 -0.340336878
H -5.449874504 0.054312222 -1.065560815
H -4.208483688 -1.506923567 1.727645675
H -3.879865303 -2.960014373 -1.375707976
H -1.755310264 4.023421504 0.044371733
H 4.351816976 -1.340898371 1.243591157
H 6.119497161 1.107567386 -0.265363374
H 4.331853777 -1.085637511 -2.104637231

