9

N 4.663997956 -0.345731196 -1.215417533
C 2.548952831 -0.822249808 -1.057552401
C 1.320614523 4.222017169 2.347508026
C 0.024427431 -1.686466956 -1.053538453
N -1.924303275 -0.596645799 0.044186502
N -2.321150996 1.419342225 1.384617279
N -0.226566049 2.748041034 1.761290378
H -0.397701896 -3.418561217 -2.042870191
H -3.584229783 -1.524411187 -0.175587871

