9

N 4.308813707 -1.394050981 0.353954623
C 2.565486291 -0.078182600 -0.084208143
C 1.401225364 2.666432040 -0.132856288
C 0.011872960 -0.914779529 -1.145254496
N -2.024041659 -0.539256310 0.226382840
N -2.356940368 1.504612318 1.689194020
N -0.449596893 2.973903047 1.321216287
H 0.067317922 -2.500142717 -2.427592238
H -3.524137343 -1.718535287 0.199161543

