11

C 4.958160038 1.442695101 -1.088524767
O 3.935970856 -0.432184749 0.489032983
C 1.319540176 -0.681575855 0.233197665
C 0.422188759 -2.754314566 1.976134154
O -1.758079129 -3.318831355 2.208107277
H 1.947341682 -3.729272273 3.030996794
H 0.316576350 1.071911995 0.721880047
H 0.776697034 -1.183243301 -1.710690788
H 6.988188292 1.486575827 -0.757858070
H 4.162298006 3.308652251 -0.658094118
H 4.606065680 1.020143685 -3.088111329

