15

C -2.690294670 -0.181861611 -0.457111767
C -0.817503307 -1.152186730 1.538989876
O 0.614842482 -2.951160628 0.216972590
C 1.209779459 -1.610883467 -2.083475984
C 3.261758055 1.496447322 1.890809637
C 0.640380959 1.479643934 1.122891987
C -0.223615884 0.844598446 -1.630859724
H -3.726408071 -1.642180223 -1.476481666
H -3.945910362 1.296061198 0.225972335
H -1.319657830 -1.826080867 3.411989978
H 0.533821628 -2.679227243 -3.713552718
H 3.277745591 2.050674514 3.906492433
H 3.251978779 -1.335873910 -2.186911579
H -0.546719613 2.934568757 1.995551959
H -0.196375237 2.258357683 -3.120646573

