12

N -4.092800191 -1.724846689 -1.236780905
C -2.240056177 -1.579497421 0.586296450
C 0.031945820 -0.625504128 0.326103385
C 2.123987611 0.683494305 0.252486175
O 4.485909240 -0.239575982 -0.283389679
C 2.230661970 3.457173291 0.761983456
O 0.438271632 4.746073731 1.270987669
H -5.360312919 -3.124877727 -1.058114821
H -3.572682820 -1.351157014 -3.024816181
H -2.806314462 -2.304124507 2.423725840
H 4.358037539 -2.030520642 -0.543151867
H 4.163246025 4.252761180 0.630691672

