12

C -3.372578284 0.198390743 -0.072819009
C 1.023028428 -1.328429296 2.503275430
C 1.041211826 0.113652305 0.445197856
O -0.954820180 0.937541243 -0.912993700
C 3.449366493 1.061410145 -0.685188029
O 5.511301205 0.612548317 0.142214968
H -4.725728808 1.027380410 -1.378092641
H -3.563123735 -1.861243776 -0.092173130
H -3.735156804 0.896491951 1.840246159
H -0.681382952 -2.046919156 3.366130860
H 2.823079791 -1.803192995 3.342984852
H 3.174836624 2.240597791 -2.391757589

