12

C -3.598353672 -0.077974031 0.734071237
C 0.619787990 -0.842631354 2.244836239
C 1.124378805 0.120228949 -0.124345075
O -0.569061543 0.281784262 -1.785386238
C 3.720182369 0.986876379 -0.912502428
O 5.150433113 2.080725865 0.463946094
H -3.616241120 1.959532608 0.801289778
H -4.418966788 -0.936915177 -0.923524993
H -4.020297182 -1.022051156 2.492714544
H -0.405799013 -2.613767622 2.233742753
H 1.857102479 -0.502395066 3.838524918
H 4.165767298 0.591712140 -2.918117349

