15

C 4.407046660 -1.188078846 -0.429476847
N 1.889452946 -0.250577552 -1.026187539
C 1.194066821 1.973504468 0.398233400
C -1.446777439 2.710310422 -0.317650811
C -2.206141602 0.395528276 0.321119327
C -4.461833676 -1.236854964 0.152915391
N 0.266655398 -0.467370731 1.277455011
H 5.736875469 -0.315513020 -1.741990681
H 4.433129529 -3.225942434 -0.720903947
H 4.982352141 -0.783152244 1.517828817
H 2.599170300 3.031099085 1.448942971
H -2.293100487 4.342365738 -1.199007982
H -4.040746854 -2.883409392 -1.021024203
H -6.049928500 -0.220621651 -0.674086776
H -5.006386453 -1.924395569 2.020266516

