15

C -5.325968677 0.471879202 -0.024046595
C -2.506053818 0.285028393 0.226034677
C -1.151361770 2.239110955 -0.552189463
N 1.597061159 1.840681288 -0.476105669
C 2.180316000 -0.475516226 0.168327203
N 5.106605168 -1.625090654 0.173405105
C 2.638428680 -2.813611980 0.592108794
H -6.029408777 -1.020660185 -1.272294963
H -6.241273834 0.147711255 1.801887232
H -6.024540748 2.289750116 -0.769629723
H -1.637311835 4.061365391 -1.399650617
H 2.798662772 3.224305686 0.061692207
H 6.219607406 -1.238211239 1.674977119
H 6.037175835 -1.916847909 -1.472908326
H 2.021582464 -4.700184076 0.984686565

