9

C -2.726543812 0.139673721 0.109914144
C -0.073079035 -0.767904781 0.355874395
C 1.949716595 0.545870521 -0.298917993
C 4.380463316 0.651583407 -0.465091627
O 6.519662882 1.060210131 -0.744440713
H -2.805379766 2.033775676 -0.685591202
H -3.649349122 0.132258587 1.959564298
H -3.807928816 -1.151833030 -1.088222108
H 0.146724459 -2.662389765 1.143141971

