11

N 2.578042916 0.252232120 1.765899364
C -0.082037924 0.982210494 1.606960679
C -1.659003698 -1.162102406 0.643544625
C -3.151493404 -1.054569468 -1.358302862
H -3.301407249 0.650793180 -2.487040452
H -4.275652113 -2.660711215 -1.947091917
H -1.551226797 -2.911623816 1.721446183
H -0.864606469 1.605027564 3.432507736
H -0.242689665 2.579635369 0.308885581
H 2.792194410 -1.242878976 2.939336649
H 3.619871662 1.680743391 2.490970724

