17

C 2.806114567 -1.096071331 -1.716467511
C -0.468662945 -1.411375480 2.956914485
C -2.217225999 -1.888378485 0.808178832
C -1.981295431 0.201211991 -1.138715515
C -0.427338660 2.253966980 0.088412897
C 0.201104484 1.307399309 2.719629248
C 0.653134494 0.737312666 -2.056888255
H 2.732726013 -2.112337071 0.086383765
H 2.800911433 -2.521122551 -3.209101365
H 4.620922556 -0.115289281 -1.775794952
H -4.066796993 -1.831232884 1.772979695
H -2.072969069 -3.820088239 0.091934609
H -3.560698555 0.640535539 -2.361917434
H -0.840793275 4.234435750 -0.213108818
H -1.055148216 2.154245301 4.155420915
H 2.107125528 1.712829259 3.403159023
H 0.713929270 1.752869211 -3.835963148

