9

O 4.168332979 -1.023281878 -0.198608817
C 1.794419243 -0.820948542 -0.496644649
N 1.069014308 1.494257734 0.228060048
N -1.480264255 1.269535094 0.607971136
C -2.124905073 -1.008220175 -0.327565845
N -0.180220497 -2.386675718 -1.013424480
H 3.361281142 1.292364346 0.896215862
H -2.594959272 2.798754462 0.765115356
H -4.080762730 -1.586745900 -0.460007432

