8

O -3.339150522 0.134461592 1.379315842
C -1.603191544 1.056520459 0.041098123
C 0.381158005 -0.760216619 -0.190797219
C 2.969831575 -0.039078157 -0.405387639
N 5.057324569 0.556500004 -0.506358880
H -1.762969079 2.969404441 -0.710169301
H -0.186916099 -2.333382286 -1.393913692
H -1.603091767 -1.491900074 1.669433342

