12

C -2.867059595 2.415675512 -0.525035119
C -1.532766743 -0.088744392 -0.147314772
C -2.990865777 -2.287960791 -1.285396623
H -1.984191304 -4.071311378 -1.012058095
H -4.847608338 -2.475479032 -0.404328523
H -3.250769448 -1.996663874 -3.312102891
O 0.890389893 0.158234705 -1.283999095
H 1.776724981 -1.412190878 -1.108143998
H -1.299953467 -0.419308571 1.891119212
H -1.752109371 3.952236542 0.275370777
H -3.127514537 2.784277648 -2.538915286
H -4.716913746 2.401173263 0.386623679

