14

C -3.901937248 1.020375460 0.411370228
C -1.339124409 0.133079427 1.160910631
C 0.759019836 0.239660302 -0.232734663
C 3.284415002 -0.717178031 0.680924013
O 4.212857950 -2.732276353 -0.791279162
C 0.688853663 1.268896215 -2.746130332
N 0.644963148 2.104457858 -4.749510368
H -4.563383797 2.469179007 1.725778324
H -5.252657017 -0.538198158 0.511800366
H -3.928891092 1.798544571 -1.494039300
H -1.158459071 -0.674405856 3.042101033
H 2.990237707 -4.071517075 -0.783888368
H 4.701413588 0.774271154 0.540382057
H 3.102482904 -1.240853719 2.677518364

