14

C -2.955606851 -2.147937414 0.231508741
C -0.387928459 -1.156981078 0.945152190
C 0.528663771 1.205862510 0.133875531
C 3.308504833 1.521194986 0.324324926
O 3.416666823 -0.083212181 -1.769456074
C -0.877030398 2.850974095 -1.480745323
N -2.092167136 4.221994851 -2.645109240
H -4.423635564 -1.440833343 1.498903380
H -2.984920453 -4.205437714 0.334374906
H -3.467251541 -1.606091329 -1.690810699
H 0.398628277 -1.782607245 2.742490890
H 1.523637816 -1.648279578 -0.627898525
H 4.024626242 3.417070979 -0.056023331
H 4.110484210 0.767188782 2.076915270

