12

C 3.509937071 -0.643716364 0.241799793
C 1.782854478 1.272254485 0.141263226
C -0.365364392 2.209797429 0.111041195
C -3.056808129 1.542689203 0.431680702
C -1.986136814 -0.671401985 -0.890451970
O -1.047588064 -2.659938015 0.157526663
H 4.208169861 -1.155992411 2.102223994
H 4.849511632 -0.894899119 -1.291059036
H 1.109845980 -2.354940149 0.106177267
H -4.417063531 2.659970424 -0.618941903
H -3.566338064 1.266332159 2.400791727
H -2.025753373 -0.561776611 -2.952063709

