12

C 2.880552391 1.285537427 -0.134815159
O 2.954502457 -0.377597723 1.970373475
C 1.498024544 -1.097686764 -0.153326028
C -1.295772127 -1.202961308 0.288646954
C -2.772067881 1.084596102 0.873160258
O -2.829093202 -0.714047076 -1.903271152
H 1.848343088 3.029727976 0.170072989
H 4.632190464 1.419711024 -1.195005505
H 2.266679886 -2.677294167 -1.224020567
H -1.919079788 -2.975874069 1.124075920
H -2.762191663 1.355303167 -1.778030744
H -4.544017411 0.570500683 1.805777933

