8

O 0.983785317 3.776767931 -0.759297380
C 1.209039669 2.199465257 -2.590064711
C 2.662863972 -0.212024361 -1.886988403
C 3.530460820 -0.266576332 0.725808561
N 3.995220006 0.134869602 2.809965111
H 1.406353098 -1.798032323 -2.294072014
H 4.240681503 -0.367394015 -3.207701721
H 1.760157469 3.265239402 0.859083707

