9

C -2.116671461 -0.159178057 0.815040540
C 0.181735528 0.337504349 -0.106803031
O 0.642680435 1.969541240 -2.028752935
N 2.437275932 -0.626909480 0.774382724
H -2.369881798 -1.503380727 2.328727153
H -0.937907169 2.624661023 -2.626832300
H -3.767162869 0.807248293 0.098627717
H 3.796486599 -0.755391978 -0.550101883
H 2.276822121 -2.181704873 1.852170180

