12

O 2.707980749 0.850611517 1.971588682
C 2.121064904 0.719810816 -0.279788466
C 2.700129164 -1.115938475 -2.027424004
C -1.733224109 -0.947386792 1.589431768
C -2.011740317 1.435518583 0.241013742
O 0.103711949 2.288110004 -1.052730368
H 2.094190806 -0.926041825 -3.966839211
H 4.043087317 -2.572579132 -1.527120657
H -3.435022980 -1.639416460 2.510420333
H -0.021751617 -2.007204502 1.848584047
H -2.696114837 2.827627455 1.646749372
H -3.580006245 1.246920269 -1.114563001

