12

C 2.233637779 -0.806261950 -0.790290023
C 0.650202868 1.459057597 -0.266304268
C -2.177859697 1.008113726 -0.600183915
O -2.585245494 -1.585311693 -1.132112188
C -1.034953488 -2.248260328 0.871192524
C -0.964558336 0.514252361 1.867883990
H 3.809544815 -1.016255479 0.512146318
H 2.692254675 -1.309012965 -2.733756349
H 1.303000121 3.392013191 -0.483579007
H -3.532583342 2.405923108 -1.222568918
H 0.953024733 -3.061146940 0.210710170
H -1.298189672 1.235798569 3.745311210

