11

O 3.494190437 -0.513352417 -2.588033728
C 1.667061075 -1.224029109 -1.028350369
C 0.800500459 -2.357890730 0.930375137
C -1.062563596 -0.813277539 -0.638548190
C -2.005050800 1.666264952 0.328433512
N -1.028789579 2.742276727 2.224392634
H 5.088157643 -1.107650231 -1.945946176
H 0.976576654 -3.416129971 2.650281193
H -2.405088907 -1.786622762 -1.865938120
H -3.600690828 2.476572352 -0.720333930
H -1.901431145 4.413481234 2.592856649

