11

O 3.545085335 0.712480247 -0.825854801
C 2.431149100 -1.329744130 -0.142218483
C 0.591752297 -2.556499490 0.958565542
C -1.462123527 -1.291755174 -0.264981139
C -2.018151062 1.337724387 0.089370912
N -0.728992712 2.860638778 1.464264983
H 4.783525099 0.360204419 -2.116950630
H 0.681454270 -4.337614059 1.968026284
H -2.605594216 -2.327862528 -1.615653513
H -3.698885155 1.964547090 -0.951761753
H -1.519221337 4.607882368 1.437192559

