14

C 2.432190131 -1.400658711 -0.806508540
C 1.900507711 -0.282700345 1.795047406
C 0.904153051 0.792008010 -1.548890926
C -1.824651724 0.780551187 -1.697326456
C -2.753356853 -0.860637081 0.474953125
C -0.716496331 0.534284913 1.740945095
H 1.633554284 -3.258132993 -1.195362190
H 4.402578346 -1.307669786 -1.360499876
H 3.251677934 1.090459563 2.484116422
H 1.916044038 2.491134166 -2.096462465
H -2.731738802 2.597143531 -1.938994875
H -4.647127142 -0.399061081 1.105050251
H -2.500594022 -2.893775107 0.274207462
H -1.252407032 2.217322620 2.784610920

