13

C -2.619955794 0.631266943 0.422008857
C -2.345259441 -0.722724679 -1.810959845
O 1.331879029 -1.116398832 -2.776101710
C 2.717053135 -1.208941687 -0.833163354
O 4.055872467 -2.836196304 0.041994477
N 2.388908789 1.145593305 0.661821074
H -3.347776763 2.545941704 0.296141645
H -0.099423480 1.083132244 0.852792015
H -3.141703981 -0.408833649 2.111655844
H -2.455414638 -2.762314797 -1.824277785
H -2.612688229 0.173274941 -3.625738071
H 3.407802496 1.118743358 2.281505902
H 2.772537800 2.694930433 -0.394091990

