18

C -3.469137166 -1.436841372 -1.287645152
C -2.468809131 0.795833459 0.222817777
C 0.392855051 1.137083906 0.024812274
C 1.265814563 3.497339231 1.421537199
N 1.658680498 -1.052898081 1.093570770
C 3.074196047 -2.338618037 -0.302199465
O 4.321381274 -4.386502219 0.520877778
H -2.989171845 -1.257268296 -3.289876310
H -2.674338257 -3.212543653 -0.603594379
H -5.522270290 -1.570776392 -1.146928718
H -3.369619918 2.540751306 -0.424943299
H -2.954549984 0.573960280 2.220738300
H 0.875945544 1.342359337 -1.992332017
H 0.339568005 5.179450652 0.666650156
H 0.816409231 3.342569868 3.429514409
H 3.305346345 3.743171775 1.241541579
H 3.893987076 -4.590003008 2.282936236
H 3.462926978 -1.974051770 -2.297621600

