10

C -2.553794706 0.742751694 1.418580099
C -2.060149752 -1.202792442 -0.631197004
N -0.280064706 -0.212137782 -2.488923583
H -1.009028278 1.327729663 -3.357927011
H 0.084608103 -1.504705671 -3.847196625
H -3.870333430 -1.800160930 -1.461546858
H -1.214012294 -2.888413500 0.212391837
H -3.416178064 2.445166975 0.625844997
H -0.788415150 1.294073074 2.329789633
H -3.838357148 0.001884057 2.852338288

