14

C -3.816222824 0.636640700 -0.248442256
C -1.232692181 -0.364468756 0.477581280
N 0.709982653 0.431947324 -1.351998358
C 3.319908140 -0.689121645 -1.128217991
N 3.773549406 -1.968124984 -3.035125846
C 4.725005666 -0.129595490 1.145220821
N 5.786890227 0.334387416 2.979978819
H -4.373688100 -0.028213894 -2.118471349
H -3.848421130 2.700790984 -0.254581863
H -5.226956345 -0.004077386 1.108696232
H -1.210688417 -2.427386107 0.495253697
H -0.686509722 0.283552592 2.361108121
H 0.719301951 2.342885511 -1.586403520
H 1.188021890 -0.836044563 -3.260698787

