9

C -3.210199825 -1.830421039 0.609580030
C -0.536486614 -2.031713909 1.502290752
C 1.457927428 -2.329983141 0.021588855
H 3.350792501 -2.461564998 0.789650407
H 1.269191050 -2.453601862 -2.017179799
H -0.250270339 -1.917677101 3.534756508
H -4.052180169 -0.042379282 1.210264760
H -4.370387976 -3.338349675 1.414135671
H -3.330269319 -1.947415948 -1.445137554

