17

C 3.456705471 -1.118794419 0.373081693
C 1.157217275 0.366107621 1.250573638
C 0.157831041 2.355012658 -0.623473712
C -2.590081360 1.750488269 -0.795408629
C -3.339469413 0.094596950 1.067091039
C -1.164342506 -1.158904744 1.760595186
O -1.552619847 -2.056786493 -2.412858119
H 3.021026467 -2.053642291 -1.407748812
H 5.075533630 0.134081870 0.115533906
H 3.982095688 -2.551587922 1.762600544
H 1.641113245 1.278527714 3.054175098
H 1.066964465 2.195771088 -2.460131187
H 0.418008345 4.300549198 0.038267445
H -3.861510526 2.736134229 -2.060301819
H -5.236930546 -0.603200711 1.328503185
H -1.117789160 -2.903477887 2.832272137
H -0.994164732 -3.013570647 -3.870783884

