11

C 2.814630221 0.618664850 0.164511695
C 1.440359494 -1.774618654 0.863107066
C 2.839565554 -3.858003837 2.208568540
H 3.595372459 -3.176928910 4.007532668
H 4.431517442 -4.518047245 1.067908743
H 1.628294496 -5.476095059 2.603039401
C -0.953006138 -2.044845994 0.307891074
O -3.080496602 -2.285893393 -0.184319918
H 4.390342747 0.206591568 -1.107667900
H 3.589061926 1.527320684 1.851283898
H 1.581902759 1.973946135 -0.776132006

