16

C 2.516068875 1.334937116 0.232307396
C 0.548156221 -0.723983690 0.326501418
C 1.354664610 -3.004462526 1.790309787
C -2.781360666 2.581545297 -0.262856936
N -2.364420641 1.172119561 -2.281517127
C -1.250746303 -1.188666551 -1.642265279
O -1.950505726 -3.199142905 -2.539346749
H 4.320890720 0.527991237 -0.399481073
H 2.862389666 2.140713275 2.102258897
H 2.041164770 2.874701194 -1.047987609
H 2.030132020 -2.457716892 3.664379323
H 2.926155148 -3.971602663 0.842433576
H -0.178172903 -4.365657293 1.976845088
H -3.466874711 1.726945400 1.449770066
H -2.815169643 4.626137047 -0.443106742
H -2.702169520 1.721054235 -4.076671889

