17

O 2.671528234 -4.151721587 -0.334983549
C 2.118468042 -1.856400615 -1.064326937
C 2.994642942 0.462675782 0.448768078
C 0.842119409 2.421429048 0.297488623
C -1.408921500 1.253142003 -1.058568715
C -0.731624666 -2.140645887 -0.440197509
C -3.762280554 0.974930986 -0.044491750
H 2.314119117 -1.469458045 -3.120726584
H 3.302251030 -0.149144688 2.394631843
H 4.783411753 1.194590502 -0.264284302
H 1.399154432 4.117637580 -0.735564990
H 0.258354587 3.037529238 2.177620193
H -1.283571658 1.241377381 -3.109218133
H -1.825992371 -3.327432557 -1.698577039
H -1.011160381 -2.483411195 1.556087777
H -5.367304660 0.452350186 -1.199995497
H -4.082731617 1.217423590 1.964712574

