10

N -3.287468270 0.077870171 0.037414612
C -0.715415370 -0.105356181 -0.246005000
C 1.181211789 1.611153131 0.385217496
N 3.415465448 0.528922343 0.029152332
N 3.081632478 -1.693563369 -0.979233458
N 0.385052201 -2.176887017 -1.172915513
H -4.296531905 -1.127691136 -1.031041717
H -3.997937792 1.838396325 0.075074983
H 1.015576633 3.515185559 1.096086071
H 1.893928441 -3.310817423 0.209359809

