9

O 2.861280397 2.854610835 -1.118889377
C 1.733063936 1.008738149 -0.557651622
C 2.091516296 -1.838892775 -0.700976993
H 2.210471664 -2.570379472 -2.618453235
H 3.666430602 -2.536269273 0.421302666
C -0.511505833 -1.896110149 0.546758995
H -2.050775104 -2.656993444 -0.586898309
H -0.587303806 -2.631673854 2.466780585
O -0.585422243 0.852623092 0.557820072

