12

O 3.614640314 2.630102735 -0.821423109
C 2.046180009 1.144666564 -0.282761421
C 1.590191797 -1.602741298 -0.885480271
C -0.582918262 -1.743373450 0.922050799
C -2.414000705 1.812353915 -0.325065661
O 0.073736263 1.607214393 1.398223893
H 1.071849823 -1.897916443 -2.850101419
H 3.210940636 -2.767932367 -0.373908581
H -2.389782957 -2.444231882 0.310694048
H -0.102814046 -2.203914277 2.866329443
H -3.850042798 1.906888031 1.152989391
H -2.239987561 3.692002074 -1.170005789

