13

C 2.301016342 0.369294021 3.000670054
O 1.616274817 -1.890679076 2.461922987
C 0.031129232 -2.741740234 0.763878530
C -1.221916660 -1.167177322 -1.099930379
O -3.012171211 0.825878895 -0.096299385
C -1.754233291 2.496860924 -1.615520741
C 0.023219329 0.987815214 -2.551385778
H 3.688605196 0.504015393 4.485954159
H 1.493191380 1.962701206 2.022787467
H -0.224390408 -4.757760780 0.876088143
H -2.346400269 -2.389133061 -2.320926931
H -2.366200441 4.441390769 -1.767838941
H 1.556365945 1.133959017 -3.878096444

