45
Properties=species:S:1:pos:R:3 pbc="F F F"
Si       0.67936000      -1.47830000       0.17323500
O       -0.96435900      -0.48744900      -0.39056600
C       -2.10259600      -1.00306900      -0.49303500
C       -3.28487400      -0.22851200      -0.75919900
H       -2.21178600      -2.08639500      -0.36710600
C       -3.22673600       1.16278000      -1.00328600
C       -4.52720400      -0.89889400      -0.75353600
C       -4.40066100       1.86670200      -1.22933200
H       -2.26297700       1.66027500      -1.02177100
C       -5.70016200      -0.18324300      -0.97546800
H       -4.55635900      -1.96950400      -0.56874100
C       -5.63534200       1.19537400      -1.21194000
H       -4.36823700       2.93462900      -1.42256900
H       -6.65962700      -0.69077600      -0.96757400
H       -6.55073600       1.75338000      -1.38840000
C       -2.15714800      -1.49513800       3.00723300
C       -1.21671700      -2.03919700       2.26914600
H       -3.19612800      -1.48287300       2.67847600
H       -1.93435900      -1.06992100       3.98567100
C       -0.28713800      -2.50694700       1.48457500
H       -0.00794600      -3.55970900       1.53738900
Cl       2.66932400      -2.28526500       0.77118700
Cl       0.32655300      -2.95063100      -1.47518700
O        1.38863900      -0.32207200      -1.13203200
O        0.93346400      -0.03985500       1.40397500
C        2.52224200       1.52246500      -0.21795800
C        1.25945700       2.02483100       0.34277100
C       -0.64873900       1.61636100       1.70642000
C        3.66893400      -0.15840800      -1.45688300
C        4.86080100       0.53982200      -1.35012700
C        3.70734300       2.24530900      -0.10512400
C        4.88470100       1.75705200      -0.66913400
C        0.83858000       3.33959000       0.14872500
C       -0.33897500       3.79375400       0.73835200
C       -1.08875700       2.91648300       1.52531100
H        3.69121800       3.17871800       0.44480500
H        5.80727900       2.31879300      -0.57219600
H        1.43875800       3.98675900      -0.47992000
H       -0.66876400       4.81443800       0.57897700
H       -2.01373900       3.22482800       1.99851200
H       -1.15902500       0.85735700       2.28892700
N        2.53725500       0.34123500      -0.90674300
N        0.50397600       1.20260200       1.12942500
H        3.54657800      -1.09959300      -1.97419000
H        5.75228700       0.12147900      -1.80242800
