45
Properties=species:S:1:pos:R:3 pbc="F F F"
Si      -0.14687700      -0.84355100       0.59888300
O        1.67344100      -0.83796600       0.04606300
C        2.33375600       0.06573800      -0.52835800
C        3.76358800      -0.00038500      -0.67554900
H        1.80763600       0.91309900      -0.97757600
C        4.52021500      -1.06555000      -0.13734000
C        4.40328400       1.04225000      -1.37978200
C        5.89806200      -1.07735500      -0.30617600
H        4.01423600      -1.85898000       0.40308700
C        5.78445800       1.02089800      -1.54490800
H        3.80922000       1.85677700      -1.78610400
C        6.52918100      -0.03703000      -1.00816000
H        6.48943100      -1.89025300       0.10410500
H        6.28275300       1.81941600      -2.08579300
H        7.60802700      -0.05396400      -1.13581600
C        2.32291200       2.02841900       1.91291400
C        1.25308400       1.26864300       1.99804100
H        2.28604300       3.02117000       1.46493300
H        3.27830100       1.70292200       2.32209300
C        0.23692400       0.45553200       1.98902000
H       -0.45841600       0.45596200       2.82982300
Cl      -0.49049700      -2.23739600      -1.13001400
Cl       0.24568900      -2.54641100       1.98893100
O       -1.96068100      -0.78048000       1.10028800
O       -0.56341100       0.52853300      -0.71418800
C       -3.30668200       0.25525700      -0.50728200
C       -2.62619800       1.53066000      -0.22907600
C       -0.59881800       2.76414400      -0.09170700
C       -3.53793400      -2.06205200      -0.00641600
C       -4.59979700      -2.17142000      -0.88987700
C       -4.37488100       0.17138900      -1.39589800
C       -5.02703100      -1.04513100      -1.59381900
C       -3.34589400       2.68275000       0.07660300
C       -2.68333900       3.88843800       0.30264200
C       -1.29187800       3.92345100       0.21686000
H       -4.67138500       1.06440700      -1.93343200
H       -5.85446300      -1.11086600      -2.29180500
H       -4.42471400       2.61121200       0.14767900
H       -3.24653200       4.78261800       0.54591300
H       -0.73173500       4.83551000       0.38687900
H        0.47457300       2.70379900      -0.18975800
N       -2.92948200      -0.86734400       0.17418600
N       -1.26263200       1.60698700      -0.32129200
H       -3.13715500      -2.87176400       0.58749700
H       -5.07584300      -3.13671400      -1.01562300
