45
Properties=species:S:1:pos:R:3 pbc="F F F"
Si       0.57071700       1.40713200      -0.23274100
O       -1.04598800       0.25044600       0.19963800
C       -2.20554400       0.68731400       0.37831500
C       -3.34172600      -0.17060300       0.59861800
H       -2.37743400       1.77025700       0.36462700
C       -3.21456900      -1.57559500       0.68599400
C       -4.61014900       0.43651700       0.72156200
C       -4.34594000      -2.35413700       0.88398200
H       -2.23173300      -2.02744800       0.60630300
C       -5.74019900      -0.35231300       0.91729700
H       -4.69330900       1.51832400       0.65948400
C       -5.60681600      -1.74361500       0.99665100
H       -4.25973800      -3.43416000       0.95538800
H       -6.71882600       0.10814300       1.00956200
H       -6.48829800      -2.35973700       1.15116800
C       -2.23428400       4.10393900      -1.42922200
C       -1.30698100       3.18528700      -1.55570800
H       -3.28960500       3.84033700      -1.36678500
H       -1.97687300       5.16139000      -1.38198300
C       -0.38153700       2.27131900      -1.66108100
H       -0.07476900       1.95459700      -2.65985400
Cl       2.52953800       2.35236900      -0.71210900
Cl       0.03252300       2.77856200       1.42048500
O        1.27781600       0.25540100       1.07990300
O        1.02684600      -0.00534900      -1.48184000
C        2.63098900      -1.45953600       0.22054600
C        1.45783500      -2.05465400      -0.43470100
C       -0.37814600      -1.78570200      -1.92423100
C        3.53679600       0.28788400       1.56195700
C        4.78966000      -0.30206100       1.52874500
C        3.88006900      -2.07498300       0.17983600
C        4.96802600      -1.49831800       0.83294600
C        1.14325400      -3.40524200      -0.29277500
C        0.05455600      -3.94837400      -0.97079500
C       -0.71252400      -3.12272100      -1.79557100
H        3.98368600      -2.99425700      -0.38432900
H        5.94121300      -1.97514500       0.79328800
H        1.75482800      -4.01078100       0.36554200
H       -0.19253100      -4.99762100      -0.85326200
H       -1.56916100      -3.50037400      -2.34162300
H       -0.90636000      -1.07332200      -2.54346200
N        2.49446100      -0.29729400       0.92624600
N        0.68894700      -1.28018100      -1.25860200
H        3.29647500       1.20362400       2.08354300
H        5.60746500       0.18238000       2.04907800
