45
Properties=species:S:1:pos:R:3 pbc="F F F"
Si      -0.10258600      -0.67330300       0.85534500
O        1.76597300      -0.29368900       0.64044700
C        2.35309800       0.34443400      -0.27108900
C        3.78676500       0.34545800      -0.40813200
H        1.76908800       0.95029500      -0.97042200
C        4.62072200      -0.39908600       0.45587000
C        4.34895300       1.12257700      -1.44356800
C        5.99721600      -0.35873000       0.27858200
H        4.17398800      -0.99377700       1.24611300
C        5.72931500       1.15680800      -1.61357100
H        3.69466900       1.68548700      -2.10437700
C        6.55074700       0.41730400      -0.75311500
H        6.64743200      -0.92676400       0.93697200
H        6.16764800       1.75215200      -2.40854300
H        7.62891800       0.44339000      -0.88518000
C        1.57995100      -1.62136700      -2.64424500
C        0.75133300      -1.83160000      -1.64616500
H        1.25628900      -1.12134000      -3.55635500
H        2.61161700      -1.96818300      -2.59884900
C       -0.00198100      -1.96111200      -0.59250400
H       -0.56721400      -2.88414200      -0.46103000
Cl      -0.08789300       0.90773300       2.44824600
Cl       0.34645700      -2.26272300       2.35811500
O       -0.52736100       0.65719100      -0.48077900
O       -1.96130200      -0.82878700       1.14970000
C       -2.74820500       1.36065800      -0.34388600
C       -3.18598800      -0.00543400      -0.67537100
C       -3.17981700      -2.32408500      -0.13474900
C       -0.95502200       2.87668500       0.03975200
C       -1.84440200       3.92663300       0.20246700
C       -3.66132800       2.40037400      -0.19015500
C       -3.21440100       3.69175800       0.08617500
C       -4.08790700      -0.25120400      -1.70813800
C       -4.53049700      -1.54811700      -1.96216900
C       -4.06935000      -2.59397900      -1.16148700
H       -4.71830100       2.17630700      -0.27219900
H       -3.92753200       4.49857300       0.21432400
H       -4.42117600       0.58495500      -2.31127100
H       -5.22587000      -1.73701100      -2.77260400
H       -4.39177000      -3.61685100      -1.31707000
H       -2.78615300      -3.06191900       0.55136500
N       -1.41250600       1.63339900      -0.23881200
N       -2.75786200      -1.05679500       0.08678900
H        0.11930700       2.96518500       0.10833600
H       -1.45142500       4.91290400       0.42004400
