51
Properties=species:S:1:pos:R:3 pbc="F F F"
Si      -0.25143700      -0.79466200      -0.60269800
O       -1.94580800      -0.51574000       0.24008200
C       -3.06224200      -0.45680900      -0.33752200
C       -4.27441300      -0.12122300       0.36023100
H       -3.12706700      -0.69597800      -1.40423100
C       -4.28244200       0.18710300       1.73943200
C       -5.47687600      -0.10875700      -0.37896400
C       -5.48179400       0.50661800       2.36055200
H       -3.35019400       0.16866600       2.29466100
C       -6.67438300       0.21294100       0.25250500
H       -5.45513300      -0.35150300      -1.43812000
C       -6.67503500       0.52037000       1.61878100
H       -5.50044700       0.74467600       3.41974500
H       -7.60284600       0.22443300      -0.30983000
H       -7.60992600       0.77104200       2.11250700
C       -2.51702100       2.37060800      -1.76989900
C       -1.50412100       1.53673000      -1.83356600
H       -3.45875200       2.15595500      -2.27355500
H       -2.44288400       3.31468500      -1.23069900
C       -0.53021600       0.67090000      -1.84432400
H        0.21269800       0.73994100      -2.64117900
Cl       0.00205500      -2.44074600       0.90305100
Cl      -1.00981300      -2.27802200      -2.13032500
O        1.50850300      -0.93312400      -1.27108300
O        0.43047500       0.31177500       0.80516000
C        3.04091700      -0.19196800       0.33502600
C        2.49758300       1.17021500       0.12988400
C        0.58667800       2.58168800       0.37293400
C        2.97879700      -2.47240000      -0.37639600
C        4.02532000      -2.78354300       0.47744900
C        4.07292100      -0.47548800       1.23738600
C        4.55733300      -1.79233900       1.29280300
C        3.27486300       2.25192300      -0.30009300
C        2.66713000       3.51710400      -0.36034000
C        1.33462900       3.68587500      -0.00609100
H        5.35398900      -2.02933100       1.99103000
H        3.25479600       4.36724800      -0.69216200
H        0.85585200       4.65739900      -0.04171000
H       -0.46079000       2.60222600       0.63765000
N        2.51877700      -1.20606400      -0.42447300
N        1.17468900       1.36967900       0.42891800
H        2.47296500      -3.17271000      -1.02599300
H        4.39228000      -3.80270600       0.50818500
C        4.65828100       0.57259800       2.14466500
H        5.63366200       0.89651000       1.76373300
H        4.01479400       1.44969700       2.23618900
H        4.81692500       0.14389300       3.13874400
C        4.71616600       2.09802600      -0.70469800
H        4.89530600       2.65872100      -1.62764600
H        5.37078100       2.51687800       0.06822300
H        4.99392300       1.05495300      -0.86703000
