51
Properties=species:S:1:pos:R:3 pbc="F F F"
Si       0.30019900      -0.59051000       0.56747000
O        1.92840600      -0.00476200      -0.25669500
C        3.00306200       0.23406900       0.35396100
C        4.24061000       0.48749800      -0.33207300
H        2.99771400       0.27655900       1.44743700
C        4.33948800       0.44271600      -1.74149400
C        5.37717800       0.78133400       0.45242500
C        5.56316200       0.69038300      -2.34772300
H        3.45816700       0.20967100      -2.33020200
C        6.59902200       1.02973600      -0.16470200
H        5.28626800       0.80748000       1.53519700
C        6.69017800       0.98366200      -1.56151100
H        5.65206300       0.65601700      -3.42927500
H        7.47713600       1.25545100       0.43222700
H        7.64470500       1.17528000      -2.04397900
C        3.53183000      -2.73201900       1.61027300
C        2.31146100      -2.27274300       1.76963500
H        4.39517800      -2.19366200       2.00024600
H        3.71846800      -3.67713100       1.10131400
C        1.11542400      -1.76428300       1.85858800
H        0.49564400      -1.98762900       2.72815200
Cl       0.42660800       1.14842900       2.08465300
Cl       0.22106300      -2.16372900      -1.05652300
O       -0.50045600       0.52046900      -0.72728900
O       -1.41664900      -0.94785900       1.24878500
C       -2.68236400       1.06413500      -0.06842100
C       -3.04088400      -0.34685400      -0.32890500
C       -2.68903600      -2.62466400       0.29672000
C       -0.98106200       2.73130000      -0.25216900
C       -1.87871000       3.71323500       0.13751400
C       -3.60250000       2.01735400       0.38365300
C       -3.17585700       3.35209600       0.47816100
C       -4.02805400      -0.72518700      -1.24765200
C       -4.34208600      -2.08931900      -1.35244900
C       -3.69046500      -3.03397700      -0.56944300
H       -3.87709200       4.10405800       0.82666900
H       -5.10058100      -2.40010800      -2.06404600
H       -3.92600500      -4.08951200      -0.63770800
H       -2.09646700      -3.28056100       0.91868800
N       -1.39637100       1.45218200      -0.33733100
N       -2.39190300      -1.31287200       0.39205800
H        0.05913600       2.89685800      -0.49379800
H       -1.53983600       4.74073600       0.19776500
C       -5.00729400       1.65710000       0.78703100
H       -5.72255300       2.03595600       0.04827800
H       -5.14985100       0.58002500       0.89148000
H       -5.23871600       2.13562900       1.74404800
C       -4.73941500       0.27317200      -2.12066400
H       -4.87608600      -0.15148200      -3.11955600
H       -5.73378400       0.48978800      -1.71377600
H       -4.19131000       1.21341700      -2.20797600
