45
Properties=species:S:1:pos:R:3 pbc="F F F"
Si      -0.09446200      -0.77961100       0.44747400
O        1.63886300      -0.62717800      -0.29897900
C        2.73240300      -0.81898700       0.29805800
C        4.00083000      -0.52025400      -0.30796400
H        2.72360600      -1.26372900       1.29803600
C        4.09756800       0.03976400      -1.60202300
C        5.16768200      -0.80518700       0.43411400
C        5.34941500       0.30883300      -2.13736900
H        3.19147100       0.25202400      -2.16024000
C        6.41797800      -0.53146300      -0.11124600
H        5.07752000      -1.23429700       1.42874100
C        6.50706800       0.02452600      -1.39371800
H        5.43607700       0.73814500      -3.13087500
H        7.31954200      -0.74774500       0.45338900
H        7.48351000       0.23781600      -1.81992100
C        2.58766100       1.71120400       2.18564200
C        1.41918900       1.12866500       2.04426900
H        2.79436000       2.68199400       1.73751500
H        3.38033100       1.24879400       2.77239100
C        0.29064000       0.50738500       1.84940100
H       -0.51914000       0.67354700       2.56214600
Cl      -0.54852600      -2.14778400      -1.26247000
Cl       0.35983600      -2.50968800       1.79171100
O       -1.90836900      -0.72220500       1.04110800
O       -0.58301300       0.58584000      -0.84960000
C       -3.28644400       0.46814500      -0.44331100
C       -2.52385400       1.69443400      -0.14272200
C       -0.43485400       2.81952700      -0.19711200
C       -3.61873000      -1.85140300      -0.05732500
C       -4.72025000      -1.87434100      -0.89803600
C       -4.38773500       0.48311300      -1.28560100
C       -5.10600400      -0.69317400      -1.52074400
C       -3.13880000       2.85973800       0.28901600
C       -2.38023700       4.01667700       0.49240000
C       -1.01254900       4.00020400       0.24129400
H       -4.66159600       1.41400500      -1.76698400
H       -5.96133100      -0.68484700      -2.18712300
H       -4.20577400       2.84685300       0.47517500
H       -2.85713800       4.92627100       0.83991400
H       -0.37990400       4.87076300       0.36804700
N       -2.91671500      -0.70728000       0.16448400
N       -1.16996400       1.68946700      -0.37585800
H       -5.24324000      -2.81279200      -1.03841800
F       -3.21499400      -2.91279500       0.59690100
F        0.83865400       2.73206100      -0.50537600
