45
Properties=species:S:1:pos:R:3 pbc="F F F"
Si       0.62781000      -1.35634800       0.63451300
O       -1.13892900      -0.53064000       0.28289600
C       -1.79182600      -0.59544000      -0.78783100
C       -3.13046900      -0.08680200      -0.91147600
H       -1.32856200      -1.05073500      -1.67037800
C       -3.83478700       0.44458800       0.19372000
C       -3.73718600      -0.13678400      -2.18534600
C       -5.12367200       0.92570400       0.01398500
H       -3.36665200       0.45215100       1.17237600
C       -5.02863900       0.35170100      -2.35630000
H       -3.18607000      -0.55578300      -3.02306600
C       -5.71806700       0.88212000      -1.25867500
H       -5.67710600       1.32915600       0.85638600
H       -5.50133500       0.31825700      -3.33283800
H       -6.72848200       1.25899500      -1.39074000
C       -2.02935900      -3.99743700      -0.78866100
C       -0.84069200      -3.45452000      -0.67757300
H       -2.73241500      -3.66651400      -1.55241400
H       -2.34495900      -4.80523200      -0.12962000
C        0.30563200      -2.85072300      -0.52926500
H        1.18022500      -3.20226200      -1.07716600
Cl      -0.25980800      -2.15422000       2.48148000
Cl       2.72273800      -1.91202100       1.11350600
O        1.14399200      -0.35320900      -0.99464600
O        1.00235300       0.29204700       1.53061700
C        2.31837800       1.61974000      -0.48726000
C        1.09458200       2.16838100       0.11744700
C       -0.63333600       1.94471800       1.72942700
C        3.37132800      -0.17332000      -1.62695100
C        4.55741300       0.53402500      -1.72899900
C        3.48660800       2.36276400      -0.58008400
C        4.61548900       1.81760900      -1.19643700
C        0.59104200       3.41044000      -0.24397800
C       -0.54991100       3.91426800       0.38470700
C       -1.17101700       3.17360200       1.38504900
H        3.50606400       3.35571600      -0.14832900
H        5.53355100       2.39099000      -1.25832600
H        1.08876900       3.96315000      -1.03124300
H       -0.95169900       4.87871100       0.09470400
H       -2.05299600       3.51777000       1.91206400
N        2.27280500       0.35410700      -1.01868900
N        0.47075100       1.44782400       1.10579300
H        5.39910000       0.06332500      -2.22302600
F        3.22348500      -1.37180200      -2.14197400
F       -1.14235800       1.20073200       2.68086400
