45
Properties=species:S:1:pos:R:3 pbc="F F F"
Si       0.55772600      -1.22504700       0.65279600
O       -1.02083500      -0.57561400      -0.26486500
C       -2.02176200      -1.25425400      -0.62157000
C       -3.24217900      -0.65086000      -1.09204000
H       -1.95056400      -2.34506300      -0.62691400
C       -3.39107500       0.74716700      -1.21960500
C       -4.30711700      -1.51001600      -1.43740700
C       -4.59337700       1.27202100      -1.67303600
H       -2.55922100       1.39646200      -0.97346900
C       -5.51039800      -0.97674600      -1.88832500
H       -4.17958100      -2.58456900      -1.33717500
C       -5.65340200       0.41185700      -2.00310500
H       -4.71477400       2.34621200      -1.77558900
H       -6.33422500      -1.63339400      -2.15008300
H       -6.59269000       0.82864900      -2.35584000
C       -3.08463100      -2.14851900       2.09776200
C       -1.77685400      -2.02915800       2.16551700
H       -3.55152100      -3.06554600       1.74038900
H       -3.74216500      -1.34131300       2.41823800
C       -0.48657200      -1.86960500       2.14854900
H        0.09742400      -2.13315300       3.03079500
Cl       2.51758100      -1.58462600       1.65853700
Cl       0.55863300      -3.13106900      -0.49206400
O        1.34772800      -0.37192300      -0.86500300
O        0.61027100       0.55525800       1.48224300
C        2.39562400       1.63787600      -0.30175000
C        1.07166300       2.23958000      -0.06216700
C       -0.98147500       2.23930200       1.14690700
C        3.67429800      -0.20503000      -1.11515700
C        4.84285000       0.54413800      -1.00053900
C        3.54936700       2.39985800      -0.18690300
C        4.78557400       1.84525000      -0.51956400
C        0.71484000       3.42863800      -0.68445700
C       -0.50933100       4.02902100      -0.39206400
C       -1.35612100       3.43184400       0.53423200
H        3.46479500       3.41823600       0.17210500
H        5.69392100       2.42868700      -0.41751900
H        1.40129000       3.86552600      -1.39953100
H       -0.79868500       4.95346200      -0.87915600
H       -2.31080300       3.86969700       0.79898100
N        2.47518100       0.33817700      -0.73451400
N        0.21997200       1.65313900       0.84001700
H        5.77837400       0.08608600      -1.29744300
Cl      -1.97497700       1.47968700       2.30857300
Cl       3.68743100      -1.77778500      -1.77011100
