45
Properties=species:S:1:pos:R:3 pbc="F F F"
Si       0.02120100      -0.62490100      -0.39065200
O       -1.72362000      -0.23165700       0.25052100
C       -2.78137900      -0.32699700      -0.42706200
C       -4.08273800      -0.15743600       0.15540500
H       -2.71034800      -0.52387300      -1.50118600
C       -4.25660000       0.09890700       1.53526200
C       -5.20398500      -0.25603500      -0.69778700
C       -5.53836500       0.25226000       2.04400100
H       -3.38538600       0.16787900       2.17847400
C       -6.48478400      -0.09971600      -0.17788800
H       -5.05479700      -0.45708900      -1.75536500
C       -6.64972100       0.15362100       1.18971000
H       -5.68490900       0.44701000       3.10200000
H       -7.35132300      -0.17505700      -0.82725700
H       -7.64991000       0.27412500       1.59671300
C       -2.61125700      -3.57693800      -1.03719400
C       -1.51423400      -2.89348500      -1.26931100
H       -3.55020300      -3.32823300      -1.53074200
H       -2.61212300      -4.42821800      -0.35719200
C       -0.45102600      -2.16094300      -1.44338700
H        0.24694800      -2.40092400      -2.24622600
Cl      -0.29444200       0.74629200      -2.20766400
Cl       0.33002300      -1.78082300       1.51750700
O        0.51858400       0.85309400       0.69821200
O        1.82789200      -0.72539300      -0.95232700
C        2.56675200       1.73893700       0.02408000
C        3.22469700       0.49266400       0.46436200
C        3.46121500      -1.87535300       0.26580500
C        0.58519900       3.06886600      -0.06291000
C        1.31710100       4.14749400      -0.55130200
C        3.31230200       2.80444700      -0.45977600
C        2.68293400       4.01189200      -0.76567400
C        4.29339200       0.53213000       1.34881800
C        4.94560300      -0.64864400       1.70679000
C        4.53105900      -1.85476200       1.15647400
H        4.37847400       2.67311800      -0.59727000
H        3.25697400       4.84528100      -1.15517900
H        4.59432500       1.48882800       1.75813300
H        5.77444400      -0.62586500       2.40566600
H        5.02148100      -2.79012200       1.39623300
N        1.21137000       1.87804300       0.18775500
N        2.81761300      -0.71036600      -0.05430200
H        0.79792100       5.07693400      -0.75021500
Cl       2.94877800      -3.31694900      -0.49013100
Cl      -1.08030500       3.20190700       0.28950000
