45
Properties=species:S:1:pos:R:3 pbc="F F F"
Si       0.00006200      -0.55258700       0.46694700
O        1.75541700      -0.06276700      -0.00704400
C        2.65041600      -0.78172200      -0.53259400
C        4.02668300      -0.36586600      -0.58122400
H        2.37020900      -1.72227200      -1.01387500
C        4.46840700       0.82750800       0.03325100
C        4.94051400      -1.19169700      -1.27066400
C        5.80859900       1.18093400      -0.04586300
H        3.75500200       1.44747500       0.56626500
C        6.28086200      -0.82716500      -1.34765900
H        4.58760400      -2.10944900      -1.73377800
C        6.71294800       0.35618600      -0.73522400
H        6.15985000       2.09348700       0.42619000
H        6.98890000      -1.45765800      -1.87645200
H        7.76052000       0.63895900      -0.79184100
C        2.96870200      -2.96901300       1.59774400
C        1.72324100      -2.54586400       1.61049500
H        3.70792000      -2.56960200       2.29127400
H        3.29447600      -3.74899400       0.91018600
C        0.52170600      -2.05169700       1.55572700
H       -0.27298700      -2.47317600       2.17159400
Cl       0.18552900       0.88134800       2.21775400
Cl      -0.25914900      -1.82520500      -1.41172200
O       -0.53150900       0.83526300      -0.71215200
O       -1.82140600      -0.72296600       0.98284800
C       -2.63175800       1.66453300      -0.12916900
C       -3.22943600       0.37229700      -0.52115200
C       -3.38901200      -1.98843900      -0.20692000
C       -0.70960100       3.08001600      -0.05995200
C       -1.49683700       4.14759300       0.36248400
C       -3.43236300       2.71934500       0.28571400
C       -2.86087800       3.96480300       0.55045500
C       -4.28114200       0.32945300      -1.42562300
C       -4.88705800      -0.88923000      -1.73369100
C       -4.44302400      -2.05033400      -1.11420000
H       -4.49551600       2.54976300       0.40380800
H       -3.47832000       4.79001600       0.88755900
H       -4.60544900       1.25375900      -1.88758900
H       -5.70294700      -0.93068800      -2.44676100
H       -4.89797600      -3.01307500      -1.31206800
N       -1.28017700       1.85403800      -0.26919000
N       -2.79082800      -0.78773500       0.06599900
H       -1.02102300       5.10581100       0.53047200
Cl      -2.84249700      -3.37396400       0.62700800
Cl       0.95612200       3.26674100      -0.38014300
