45
Properties=species:S:1:pos:R:3 pbc="F F F"
Si       0.57671600      -0.97148600       1.10287200
O       -1.18177100      -0.55866600       0.41664100
C       -1.66590800      -0.80236500      -0.72327200
C       -3.06974600      -0.65106500      -1.00348700
H       -1.00198200      -1.07296600      -1.54836700
C       -3.99771200      -0.30147100       0.00306900
C       -3.50248300      -0.85089100      -2.33187600
C       -5.33870400      -0.15460000      -0.32541000
H       -3.65026200      -0.15791700       1.02070700
C       -4.84761900      -0.69913900      -2.65194100
H       -2.77827700      -1.12748100      -3.09357500
C       -5.76298500      -0.35232600      -1.64962100
H       -6.06093300       0.10970600       0.44101200
H       -5.18786800      -0.85223700      -3.67136100
H       -6.81440900      -0.23793900      -1.89842100
C       -1.53659400      -3.83113300      -0.80276400
C       -0.52063100      -3.36661900      -0.10770800
H       -1.50335700      -3.88322400      -1.89043700
H       -2.43374000      -4.20290300      -0.30917000
C        0.43782700      -2.82647700       0.58598100
H        1.25391200      -3.44995700       0.95306800
Cl      -0.34341200      -1.23222700       3.09744500
Cl       2.66714500      -1.10715300       1.86362200
O        1.17621000      -0.53939700      -0.72487000
O        0.72753400       0.91337000       1.42254500
C        2.20491000       1.55045100      -0.80596000
C        0.89805200       2.17569200      -0.53570400
C       -0.97891400       2.44722700       0.91340600
C        3.43514000      -0.42952000      -1.30944900
C        4.58054900       0.32797200      -1.53659400
C        3.33400800       2.32332800      -1.03533500
C        4.53612400       1.70885700      -1.38747800
C        0.40419700       3.16507100      -1.37428600
C       -0.80764100       3.78915300      -1.07805800
C       -1.49556900       3.43164000       0.07428300
H        3.25767100       3.39794700      -0.92403900
H        5.42779500       2.30297900      -1.55388700
H        0.97251600       3.42535800      -2.25910000
H       -1.20643800       4.55352700      -1.73567800
H       -2.42821700       3.90700800       0.35199000
N        2.27207000       0.18587000      -0.92763800
N        0.19401200       1.81534100       0.58730400
H        5.48868600      -0.18438700      -1.82962700
Cl      -1.75306900       2.02631900       2.37217000
Cl       3.41255500      -2.12107600      -1.54101900
