51
Properties=species:S:1:pos:R:3 pbc="F F F"
Si      -0.18216100      -0.78751000       0.66950600
O        1.71128800      -0.78647200       0.33162600
C        2.31759900      -0.67278500      -0.76243200
C        3.74404000      -0.53109800      -0.83844000
H        1.74380000      -0.67210100      -1.69609300
C        4.54969200      -0.48144500       0.32347400
C        4.32977300      -0.42257000      -2.11941500
C        5.92222000      -0.32718800       0.19344800
H        4.07995800      -0.55687200       1.29849000
C        5.70729400      -0.27044200      -2.23817800
H        3.69681500      -0.46081600      -3.00199600
C        6.49939300      -0.22326700      -1.08386400
H        6.55231600      -0.28621800       1.07661900
H        6.16637900      -0.18912500      -3.21842200
H        7.57541000      -0.10401900      -1.17651900
C        2.36481700       1.55099200       2.84591500
C        1.22139300       1.01403500       2.49108500
H        2.68129800       2.51930800       2.46016200
H        3.03153800       1.04736000       3.54511200
C        0.09865400       0.46759100       2.11340100
H       -0.79224200       0.68716000       2.70538200
Cl      -0.47801200      -2.16334100      -1.12048200
Cl       0.05451600      -2.55762500       2.01398100
O       -2.01905400      -0.64645700       1.02156600
O       -0.37375700       0.55904000      -0.69386700
C       -3.10779200       0.58271600      -0.63151700
C       -2.31307400       1.77124800      -0.25919500
C       -0.15598000       2.82649400      -0.18307900
C       -3.69868900      -1.70540100      -0.19067000
C       -4.67820100      -1.62230800      -1.18180500
C       -4.09023900       0.66862400      -1.60839200
C       -4.87486700      -0.44831000      -1.89874400
C       -2.93187700       2.96735900       0.07601500
C       -2.15695000       4.10432300       0.30959100
C       -0.77705800       4.02820700       0.16020500
H       -4.21834000       1.60558600      -2.13692500
H       -5.63548200      -0.39465500      -2.67025900
H       -4.01221500       2.98988100       0.15385600
H       -2.63063300       5.04032000       0.58530900
H       -0.14925700       4.90120800       0.29704900
C        1.30438400       2.69494100      -0.44857800
N       -2.92907500      -0.60052400       0.03299100
N       -0.94651500       1.72507300      -0.34365000
C       -3.47876100      -2.90594500       0.66321900
H       -5.28440400      -2.50134300      -1.36764900
H       -3.61869800      -2.64141100       1.71784200
H       -4.18695800      -3.68690500       0.37995800
H       -2.45223300      -3.26802600       0.55860900
H        1.76056800       1.96633300       0.22592900
H        1.46308200       2.34497600      -1.47537600
H        1.78568700       3.66557600      -0.31589000
