51
Properties=species:S:1:pos:R:3 pbc="F F F"
Si      -0.14370900      -0.76616900       0.37681500
O        1.62330300      -0.59867800      -0.33588600
C        2.70499500      -0.87720200       0.24612000
C        3.98791600      -0.54213800      -0.31391200
H        2.67663100      -1.42398300       1.19345600
C        4.11144700       0.13422900      -1.54829800
C        5.13979800      -0.90920400       0.41441300
C        5.37444900       0.44069200      -2.03618900
H        3.21710400       0.40239000      -2.10088800
C        6.40153500      -0.59676600      -0.08201900
H        5.02975000      -1.43071000       1.36174100
C        6.51702600       0.07785500      -1.30394800
H        5.48126000       0.95899600      -2.98431600
H        7.29157900      -0.87457700       0.47393800
H        7.50213100       0.32154500      -1.69226700
C        2.63179300       1.40697700       2.39837500
C        1.43023100       0.92789100       2.16527400
H        3.35623200       0.84800200       2.98945000
H        2.93504400       2.38520200       2.02742100
C        0.27196200       0.41356400       1.86798300
H       -0.56151700       0.60273500       2.54685700
Cl      -0.56184900      -2.05128700      -1.41775600
Cl       0.30938800      -2.60097500       1.61934100
O       -1.91928300      -0.75455800       0.98308000
O       -0.58633100       0.63949500      -0.83707100
C       -3.27895200       0.52544500      -0.41203300
C       -2.49322000       1.72443300      -0.05735500
C       -0.38411900       2.86911000      -0.17870600
C       -3.69239700      -1.81945700      -0.08325700
C       -4.79953000      -1.72183800      -0.92811500
C       -4.38564800       0.62472200      -1.24357900
C       -5.14711300      -0.51232100      -1.51773400
C       -3.10559800       2.86311300       0.44658000
C       -2.34683400       4.01357700       0.66824700
C       -0.99639100       4.01212700       0.33804300
H       -4.62701000       1.58871300      -1.67523200
H       -6.00570400      -0.44758300      -2.17746000
H       -4.16648100       2.83063500       0.66405400
H       -2.81302600       4.90370300       1.07678200
H       -0.38628900       4.89935100       0.46396600
C        1.02983000       2.82225300      -0.64552800
N       -2.95490100      -0.69054500       0.12659300
N       -1.14990900       1.74843300      -0.32197600
C       -3.30299700      -3.06539000       0.63409900
H       -5.38199900      -2.61923400      -1.10206400
H       -3.32268500      -2.89170100       1.71639000
H       -3.99971100      -3.86463300       0.37437400
H       -2.28069500      -3.35404100       0.37471600
H        1.50024800       3.79207000      -0.47425000
H        1.58787400       2.03962900      -0.12775800
H        1.05409600       2.58296400      -1.71533900
