51
Properties=species:S:1:pos:R:3 pbc="F F F"
Si      -0.04532300      -0.53668900       0.50658400
O        1.69210400       0.04599800       0.00840000
C        2.62345900      -0.60960700      -0.53311100
C        3.97127600      -0.10632200      -0.59161600
H        2.39702900      -1.56102700      -1.02120900
C        4.34166900       1.10728300       0.02964200
C        4.92816400      -0.86313300      -1.30087900
C        5.65439900       1.54977400      -0.06283200
H        3.59654800       1.67415100       0.57840900
C        6.24059800      -0.40990700      -1.39152500
H        4.62965300      -1.79722900      -1.76943300
C        6.60174600       0.79350400      -0.77252300
H        5.95099800       2.47903900       0.41412500
H        6.98144900      -0.98682300      -1.93634500
H        7.62734700       1.14588800      -0.83992500
C        3.06823500      -2.80313600       1.57196400
C        1.81495000      -2.41139400       1.65070300
H        3.36573300      -3.61911100       0.91392500
H        3.84378000      -2.34083400       2.18163200
C        0.60045100      -1.94700300       1.65203100
H       -0.13362000      -2.33839900       2.35709200
Cl       0.07769000       0.96978800       2.21930800
Cl      -0.20197600      -1.91625300      -1.32357000
O       -0.63542600       0.75038100      -0.71317700
O       -1.81817300      -0.81470600       1.04226600
C       -2.78772000       1.47393700      -0.17297300
C       -3.30729100       0.12956500      -0.48964900
C       -3.30112600      -2.23315200      -0.04861200
C       -0.93070600       3.00168300      -0.19320700
C       -1.79974600       4.03353000       0.16269300
C       -3.65230900       2.50209500       0.18008100
C       -3.15331600       3.79112500       0.36660700
C       -4.36664400      -0.02225500      -1.37555500
C       -4.89256800      -1.29125300      -1.61553000
C       -4.36001900      -2.38554400      -0.94388300
H       -4.70377900       2.27544400       0.30945900
H       -3.81971600       4.59706900       0.65462400
H       -4.75534700       0.85716600      -1.87447700
H       -5.71181500      -1.41871900      -2.31490900
H       -4.75635900      -3.38304000      -1.09362400
C       -2.71735400      -3.34959800       0.74723600
N       -1.45503200       1.74782600      -0.31969900
N       -2.79824700      -0.97692800       0.13406200
C        0.51683900       3.19841000      -0.48696700
H       -1.38529600       5.02905000       0.27107500
H        0.73681800       2.86808200      -1.50860700
H        0.76853000       4.25485500      -0.37639400
H        1.12720300       2.59330100       0.18834600
H       -1.65001400      -3.45265200       0.52947600
H       -2.81597800      -3.13603800       1.81769400
H       -3.23878300      -4.27789900       0.50631400
