51
Properties=species:S:1:pos:R:3 pbc="F F F"
Si      -0.06427400      -0.54220100       0.61178500
O        1.72351200       0.06227800       0.27435000
C        2.80841500      -0.55599700       0.43501100
C        4.05892500      -0.05586700      -0.07796600
H        2.81477400      -1.48339700       1.01486500
C        4.13324400       1.12735000      -0.84618100
C        5.22997800      -0.78768300       0.21247600
C        5.36540100       1.56463200      -1.31319900
H        3.22476000       1.67806400      -1.06517600
C        6.46116500      -0.34139500      -0.25860500
H        5.15924400      -1.69689700       0.80363500
C        6.52746900       0.83202800      -1.02007000
H        5.43278900       2.47214200      -1.90567900
H        7.36540400      -0.90015400      -0.03792000
H        7.48819200       1.17999100      -1.38961200
C        2.27528700      -2.80424700      -1.69440900
C        1.11695900      -2.28216400      -1.36052300
H        2.59394000      -3.76832600      -1.29968900
H        2.94024700      -2.30048500      -2.39462700
C        0.02737200      -1.70453600      -0.94595600
H       -0.88463700      -1.84772700      -1.52609900
Cl      -0.07603000       0.96179900       2.29041700
Cl       0.52713600      -2.16796900       2.05645700
O       -0.59457400       0.77755800      -0.65990500
O       -1.87624300      -0.82037300       1.00657700
C       -2.78626500       1.46827700      -0.25808000
C       -3.25945900       0.12010800      -0.62753700
C       -3.21093700      -2.25511000      -0.25047800
C       -0.95985400       3.02413800      -0.15808900
C       -1.86436000       4.03776100       0.16000900
C       -3.68790500       2.47705800       0.05498000
C       -3.22319600       3.77187700       0.28452000
C       -4.25129100      -0.03779400      -1.58746300
C       -4.72134300      -1.31409300      -1.89617800
C       -4.19895800      -2.41250600      -1.22296300
H       -4.74090700       2.23154100       0.12143800
H       -3.91840300       4.56287200       0.54421000
H       -4.63049600       0.84321500      -2.09109100
H       -5.48797500      -1.44492100      -2.65224400
H       -4.54943100      -3.41701700      -1.42987400
C       -2.63262500      -3.37726400       0.53936700
N       -1.45138200       1.76257000      -0.32901100
N       -2.76438600      -0.98865800       0.00556600
C        0.49946100       3.24662700      -0.36075700
H       -1.47221900       5.03777400       0.30516200
H        0.78752500       2.92089400      -1.36695400
H        0.72549600       4.30722900      -0.23537900
H        1.07549100       2.65195100       0.35319100
H       -1.54619100      -3.41693900       0.41176300
H       -2.81738900      -3.21696500       1.60758700
H       -3.08527800      -4.31744500       0.21911900
