51
Properties=species:S:1:pos:R:3 pbc="F F F"
Si       0.19465700      -0.76867100      -0.65579900
O       -1.70004400      -1.08338800      -0.59319100
C       -2.41658100      -1.02575700       0.43893000
C       -3.82681200      -1.28574300       0.42102300
H       -1.95398400      -0.76345500       1.39612700
C       -4.51500800      -1.61795100      -0.76899900
C       -4.52312100      -1.19255300       1.64643600
C       -5.88160700      -1.85241000      -0.72156900
H       -3.96527200      -1.68280600      -1.70228300
C       -5.89308400      -1.42990800       1.68309100
H       -3.97871000      -0.93569500       2.55135500
C       -6.56858000      -1.75887700       0.50101100
H       -6.42241100      -2.10769400      -1.62765000
H       -6.43585900      -1.36072600       2.62055200
H       -7.63887800      -1.94386800       0.52862700
C       -0.52871400      -3.89265000       1.72613500
C        0.01909700      -2.74513500       1.41307900
H       -0.02588000      -4.83390200       1.50792000
H       -1.50043400      -3.94005500       2.21649300
C        0.52650100      -1.59905900       1.05147200
H        1.14682300      -1.06311400       1.76974000
Cl      -0.24717300       0.54645200      -2.39175900
Cl       0.47163600      -2.52652200      -1.91645900
O       -0.11577700       0.86423900       0.57931600
O        2.01135700      -0.14857300      -0.87079700
C        1.56921900       2.38937200       0.15691300
C        2.54960500       1.44427500       0.74003500
C        3.78810300      -0.58588000       0.58873700
C       -0.70723200       3.02086300      -0.11083000
C       -0.31375300       4.26615100      -0.57971500
C        1.98358600       3.63294800      -0.30799400
C        1.03945700       4.57028000      -0.71451600
C        3.32690200       1.84566100       1.82230400
C        4.32205500       1.00941100       2.31605500
C        4.56398400      -0.20239900       1.67297600
H        3.04571400       3.84611000      -0.34599900
H        1.34951400       5.53416800      -1.10141600
H        3.13400100       2.81564900       2.26495100
H        4.91933900       1.30659700       3.17043900
H        5.36334000      -0.85403600       2.00008500
N        0.23757500       2.08236500       0.20041100
N        2.76053400       0.21693400       0.17180600
H       -1.07370300       4.99438100      -0.83113700
C       -2.18069100       2.69276700       0.16079100
C        4.09892700      -1.86451300      -0.20565700
F        4.29553500      -1.58753400      -1.51147500
F        5.24059100      -2.42072400       0.26579500
F        3.12444900      -2.77965300      -0.09368000
F       -2.66339000       1.73119300      -0.64617000
F       -2.93629600       3.79774900      -0.02706300
F       -2.35525000       2.29722900       1.44555800
