51
Properties=species:S:1:pos:R:3 pbc="F F F"
Si      -0.47419400       0.20317900       1.47607100
O        1.14669900       0.68247600       0.57025200
C        1.34040500       1.47962100      -0.39095100
C        2.65861400       1.92303700      -0.75854700
H        0.49867700       1.79344500      -1.01244200
C        3.79917200       1.58840100       0.00589800
C        2.78919800       2.70199700      -1.92895600
C        5.04951600       2.02974400      -0.40520200
H        3.68157400       0.99886900       0.90810000
C        4.04691800       3.13537200      -2.33499300
H        1.90241800       2.95854400      -2.50293300
C        5.17396900       2.79978300      -1.57326500
H        5.93192000       1.78346800       0.17748600
H        4.15501400       3.73439700      -3.23383400
H        6.15589500       3.14287200      -1.88736300
C        0.33138900       4.07394400       0.81135100
C       -0.29497200       3.07989700       1.40328700
H       -0.08040300       4.55277300      -0.07644700
H        1.26504700       4.46907500       1.20962100
C       -0.85055100       2.03327700       1.93687000
H       -1.58902100       2.14861600       2.73038900
Cl       0.67798700      -0.23248500       3.29389300
Cl      -2.36103600      -0.66917800       2.25405400
O       -1.31294500       0.52222200      -0.31663200
O       -0.08004600      -1.59518900       0.82782100
C       -1.81816600      -1.50917100      -1.30925200
C       -0.37269300      -1.76431500      -1.47341900
C        1.74092300      -2.25826800      -0.49834500
C       -3.53676200       0.07083600      -0.85146800
C       -4.49085900      -0.82673400      -1.30713000
C       -2.75883200      -2.42047600      -1.77793100
C       -4.11061500      -2.09534300      -1.74410400
C        0.14171800      -2.00755800      -2.74359800
C        1.48264200      -2.33796100      -2.89781900
C        2.27211000      -2.48958700      -1.75949000
H       -2.41301300      -3.37379100      -2.16038900
H       -4.85690500      -2.80494600      -2.08249800
H       -0.52471000      -1.92726000      -3.59447800
H        1.90150000      -2.50638100      -3.88328500
H        3.30352600      -2.80644500      -1.84045500
N       -2.22318300      -0.30603100      -0.80897800
N        0.44215200      -1.83833300      -0.37747800
H       -5.52879000      -0.52143700      -1.32639300
C       -3.88759600       1.52759800      -0.51340700
C        2.56340400      -2.55028500       0.76903400
F        1.89349900      -3.36405000       1.60767400
F        3.70893000      -3.18627000       0.41965100
F        2.91029200      -1.43169500       1.42295200
F       -3.64335800       1.85752300       0.76080400
F       -5.20315800       1.74147700      -0.74841900
F       -3.19156400       2.36897000      -1.31854000
