51
Properties=species:S:1:pos:R:3 pbc="F F F"
Si      -0.46699500       0.48418200       1.34290100
O        1.05777800       0.70734400       0.20281900
C        2.02621300       1.48918200       0.40269100
C        3.04284500       1.71317700      -0.58649900
H        2.12842800       1.97161700       1.37915200
C        2.97709300       1.12991500      -1.87290300
C        4.13532700       2.53363000      -0.23140700
C        3.99627000       1.37010400      -2.78321300
H        2.12688700       0.50874300      -2.13757800
C        5.15371100       2.76575700      -1.15028700
H        4.17064300       2.97688400       0.76023600
C        5.08278800       2.18543900      -2.42270100
H        3.95567400       0.93162100      -3.77566600
H        5.99727600       3.39455100      -0.88339800
H        5.87634900       2.36929300      -3.14160300
C        0.50130800       4.20608000       0.12751300
C       -0.17299400       3.31373800       0.81772500
H        0.14273100       4.56411200      -0.83689000
H        1.42616900       4.63493100       0.51134200
C       -0.78955300       2.37611300       1.47725400
H       -1.56750600       2.64364300       2.19251300
Cl       0.74761400       0.35689100       3.18710000
Cl      -2.34383100      -0.17154900       2.32656300
O       -1.33191000       0.50333500      -0.45299100
O       -0.13564200      -1.40845700       1.04689500
C       -1.95187400      -1.65982200      -1.01613700
C       -0.52705900      -2.01972600      -1.16293300
C        1.59525300      -2.42501500      -0.16872900
C       -3.58912300       0.05528200      -0.84910400
C       -4.59181300      -0.86904300      -1.10208100
C       -2.94337500      -2.60252600      -1.26947100
C       -4.27868800      -2.21616100      -1.27933400
C       -0.07997400      -2.55958400      -2.36577100
C        1.22885800      -3.01010300      -2.48164700
C        2.05722500      -2.96119100      -1.36223300
H       -2.64657100      -3.62845200      -1.45306200
H       -5.06292700      -2.94370000      -1.45389100
H       -0.77329900      -2.61646000      -3.19666500
H        1.59372100      -3.41699200      -3.41780200
H        3.06646200      -3.34851900      -1.40388500
N       -2.29039400      -0.36347200      -0.75629000
N        0.32613700      -1.91419600      -0.10067200
H       -5.61558500      -0.52449600      -1.16534500
C       -3.87736900       1.56179800      -0.77635100
C        2.47260600      -2.44182300       1.09296800
F        1.83325500      -2.99920700       2.13704100
F        3.58361500      -3.18056400       0.85832000
F        2.88101000      -1.20489100       1.43410200
F       -3.61325600       2.09408300       0.42507400
F       -5.18611200       1.78474900      -1.04363800
F       -3.15661200       2.22454600      -1.71195200
