63
Properties=species:S:1:pos:R:3 pbc="F F F"
Si      -0.27672100      -0.77634600       0.58742700
O        1.56933700      -1.23069100       0.28333300
C        2.22416800      -1.22688800      -0.78832200
C        3.65119800      -1.37697600      -0.81533000
H        1.69685900      -1.09199900      -1.73942000
C        4.40931100      -1.49131500       0.37392600
C        4.29125500      -1.37840300      -2.07464600
C        5.78937800      -1.60624400       0.29174800
H        3.89918500      -1.47395600       1.33164900
C        5.67525200      -1.49746200      -2.14515900
H        3.69430700      -1.28654400      -2.97808700
C        6.42029700      -1.61041900      -0.96427200
H        6.38411900      -1.69157000       1.19606100
H        6.17580000      -1.50210900      -3.10831200
H        7.50164700      -1.70104200      -1.01959900
C        2.66697400       0.39883200       3.14585900
C        1.45783800       0.35401800       2.63978400
H        3.38468200       1.15762600       2.83932900
H        2.98874100      -0.32530000       3.89378200
C        0.26440900       0.27705100       2.11782200
H       -0.54020500       0.82782000       2.60925200
Cl      -0.84271400      -1.91617800      -1.30256600
Cl      -0.53813600      -2.63727100       1.80584500
O       -2.02917300      -0.19921500       0.89918100
O       -0.06453200       0.66831000      -0.66313300
C       -2.69836600       1.36091200      -0.68883400
C       -1.66117100       2.28697800      -0.18929700
C        0.68084300       2.75856700       0.10306300
C       -3.84077200      -0.74747400      -0.47394400
C       -4.71234200      -0.34505800      -1.48818900
C       -3.57264700       1.76011200      -1.68933600
C       -4.58537700       0.89439000      -2.10189700
C       -1.99563300       3.56868200       0.22323000
C       -0.98629500       4.45404600       0.59929400
C        0.33952500       4.04480900       0.52458900
H       -3.44015200       2.73710400      -2.13823000
H       -5.26854200       1.19013200      -2.89093300
H       -3.04097400       3.85112600       0.25019300
H       -1.23430300       5.45456900       0.93708100
H        1.13887100       4.72376900       0.79227200
C        2.09650900       2.28269800      -0.09800400
N       -2.85118200       0.12618800      -0.11777700
N       -0.34399100       1.91143000      -0.22034600
C       -3.98126000      -2.03133400       0.29991100
H       -5.49828900      -1.02832800      -1.78347900
C       -4.75815200      -1.74296600       1.60720800
C       -4.65447000      -3.14422600      -0.51446900
H       -2.97833100      -2.36125000       0.57252600
H       -4.81523300      -2.66650500       2.19290800
H       -4.25283700      -0.97969500       2.20663600
H       -5.77701000      -1.40751600       1.38111800
H       -4.62046500      -4.06863600       0.07065200
H       -5.70715800      -2.91835600      -0.72056400
H       -4.13394700      -3.31305800      -1.46305800
C        3.11923300       3.09457200       0.70699600
H        2.13608800       1.25027500       0.24804600
C        2.43729100       2.31234400      -1.60730600
H        2.85429800       3.13445200       1.76831100
H        4.09786800       2.61490900       0.60806200
H        3.20724800       4.11826700       0.32605000
H        2.41165500       3.34307000      -1.97838800
H        3.44833400       1.91669400      -1.75003300
H        1.73546900       1.70748000      -2.18825300
