63
Properties=species:S:1:pos:R:3 pbc="F F F"
Si      -0.21874000      -0.77268100       0.29789200
O        1.55468900      -0.98295300      -0.36539000
C        2.52340600      -1.60514500       0.14585300
C        3.87053500      -1.43886700      -0.33614400
H        2.33650000      -2.32224900       0.95076100
C        4.17883300      -0.54386200      -1.38437800
C        4.89302400      -2.18854600       0.28223600
C        5.49652600      -0.40100200      -1.79705900
H        3.38061600       0.02063300      -1.85455000
C        6.21103800      -2.03989700      -0.13847400
H        4.64140300      -2.87104900       1.08986200
C        6.51131500      -1.14651100      -1.17452200
H        5.74399500       0.28507400      -2.60152100
H        7.00303300      -2.61215400       0.33458800
H        7.54069200      -1.02956100      -1.50200700
C        2.93987100       0.13026600       2.63768800
C        1.66846400       0.16608300       2.30532700
H        3.33963400      -0.68969800       3.23321100
H        3.62772800       0.92277300       2.34879400
C        0.43348700       0.13026100       1.89839900
H       -0.33335200       0.59455400       2.52051500
Cl      -0.87725500      -1.74021000      -1.62146400
Cl      -0.27399900      -2.77055100       1.36148700
O       -1.95699300      -0.36809600       0.87057200
O       -0.24824200       0.80912200      -0.76498800
C       -2.88804300       1.33199100      -0.41672600
C       -1.85134100       2.25578000       0.08621900
C        0.48569400       2.82480500       0.18659800
C       -3.87271300      -0.86441600      -0.37567800
C       -4.87426700      -0.39869000      -1.23044600
C       -3.89019400       1.79237800      -1.25844200
C       -4.89032300       0.91590400      -1.67856500
C       -2.19552100       3.45535000       0.69217600
C       -1.19015200       4.34465200       1.07074900
C        0.13628600       4.02631600       0.80583800
H       -3.86354200       2.82513200      -1.58445300
H       -5.67280600       1.26010400      -2.34639200
H       -3.24276500       3.67103300       0.86637400
H       -1.44381600       5.27995000       1.55820700
H        0.92967100       4.71233600       1.07407900
C        1.88806900       2.46553700      -0.23040300
N       -2.90318100       0.02597700      -0.00585100
N       -0.53070200       1.96698100      -0.13299100
C       -3.84866200      -2.24584500       0.22234200
H       -5.64591500      -1.09382100      -1.53553500
C       -4.46389700      -2.18720400       1.64137200
C       -4.56619600      -3.28399400      -0.65047100
H       -2.80328700      -2.54081000       0.32009900
H       -4.40081200      -3.18286600       2.09319100
H       -3.92371200      -1.48005300       2.27772300
H       -5.51849000      -1.89233200       1.58825400
H       -4.40973000      -4.27279800      -0.20818300
H       -5.64680400      -3.10390200      -0.69144000
H       -4.16702600      -3.29152900      -1.67024300
C        2.95996900       3.17783400       0.60422300
H        2.00050400       1.39088800      -0.09453400
C        2.05909000       2.77655600      -1.73667400
H        2.80292000       3.02211600       1.67638500
H        3.93791000       2.76989800       0.33010500
H        2.97810300       4.25503500       0.40352100
H        1.93291700       3.84974100      -1.91915600
H        3.07040700       2.48954500      -2.04461600
H        1.33545400       2.22078600      -2.33981300
