69
Properties=species:S:1:pos:R:3 pbc="F F F"
Si       0.50456300      -0.80563200       1.04660900
O       -0.99038400      -0.85307800      -0.25173000
C       -1.84466000      -1.76348800      -0.37164500
C       -2.98884700      -1.64386400      -1.23501600
H       -1.73220500      -2.68451200       0.20994500
C       -3.18369700      -0.52240800      -2.07302600
C       -3.94129500      -2.68491300      -1.20665700
C       -4.32247300      -0.44847900      -2.86161900
H       -2.43705700       0.26421300      -2.09182900
C       -5.08375500      -2.59990000      -1.99719100
H       -3.77718000      -3.54042000      -0.55676800
C       -5.27256200      -1.48383100      -2.82085700
H       -4.48210000       0.40692400      -3.51109800
H       -5.82368600      -3.39377800      -1.97590400
H       -6.16338200      -1.41744900      -3.43931800
C       -2.12842200      -3.22615200       2.98969300
C       -1.36104300      -2.17834100       2.80494600
H       -3.16982100      -3.22476900       2.66807900
H       -1.75205800      -4.12658800       3.47366000
C       -0.60541200      -1.13929900       2.58497500
H       -0.56734600      -0.35383800       3.34127200
Cl       2.29944300      -0.38128700       2.30376400
Cl       0.94741900      -2.95582900       0.62196600
O        1.38673600      -0.36678400      -0.56104500
O       -0.03797100       1.06017700       1.25232000
C        1.97675600       1.85434200      -0.43525900
C        0.55850900       2.20567400      -0.66612400
C       -1.67012800       2.42191000       0.21412100
C        3.69175100       0.19202300      -0.74115800
C        4.62636600       1.20987600      -0.50242600
C        2.90913500       2.85722700      -0.24463600
C        4.25901500       2.51491100      -0.21076600
C        0.24467300       2.98068100      -1.77170200
C       -1.05695100       3.44423900      -1.92397600
C       -1.97701900       3.18852300      -0.91604800
H        2.56693200       3.87846300      -0.12732100
H        5.01583700       3.26619300      -0.01270100
H        1.02560400       3.21165400      -2.48656000
H       -1.33961200       4.03100700      -2.79127000
H       -2.96954900       3.60702200      -0.99582400
C       -2.65798700       2.26389400       1.37663100
N        2.37662100       0.55184700      -0.56702100
N       -0.40296400       1.87242400       0.24993700
C        4.13989000      -1.19699200      -1.22576200
H        5.67646400       0.96344100      -0.56060400
C        5.47049500      -1.04268400      -2.01472400
C        4.41909100      -2.11819300      -0.01645500
C        3.12921000      -1.85479500      -2.19751400
H        5.70838100      -2.01772600      -2.44990300
H        5.37725500      -0.31194200      -2.82570000
H        6.31045400      -0.76327800      -1.37185000
H        4.78713000      -3.07711100      -0.39957900
H        5.18968700      -1.67996800       0.62744500
H        3.52021300      -2.29130900       0.57215300
C       -1.99604400       2.69639500       2.71047500
C       -3.88232800       3.18470000       1.16757200
C       -3.19204300       0.81936100       1.46929700
H       -1.63574800       3.72934600       2.64024800
H       -2.76178900       2.65297400       3.49246100
H       -1.16880600       2.04788200       2.99578000
H       -2.40185300       0.10872000       1.69349400
H       -3.92958000       0.78219400       2.27885900
H       -3.68953900       0.53457500       0.53642000
H        3.62719400      -2.71407800      -2.65892900
H        2.23431400      -2.20717000      -1.69056800
H        2.84383500      -1.15788300      -2.99449900
H       -3.59193300       4.23634000       1.06874300
H       -4.47365200       2.88894900       0.29382700
H       -4.52092200       3.08684000       2.05024400
