69
Properties=species:S:1:pos:R:3 pbc="F F F"
Si      -0.48257000       0.25307700       1.38951600
O        1.05352800       0.72924300       0.25307500
C        1.91618100       1.59815300       0.52941400
C        2.93733800       2.00177100      -0.39910700
H        1.91148200       2.05365000       1.52572400
C        2.99220000       1.49870000      -1.71883700
C        3.90621200       2.92360900       0.05160600
C        4.00882600       1.91392500      -2.56660100
H        2.23396400       0.79997800      -2.05514000
C        4.92423100       3.33242700      -0.80494100
H        3.84900900       3.30371600       1.06815600
C        4.97436500       2.82736700      -2.10981900
H        4.05912500       1.53640300      -3.58344900
H        5.67436300       4.03918300      -0.46433700
H        5.76774500       3.14745300      -2.77961000
C       -0.21599600       4.15009100       0.33880900
C       -0.53383600       3.14259200       1.11828300
H        0.75535400       4.63858900       0.40687700
H       -0.92500100       4.54186200      -0.39013800
C       -0.81924400       2.09825600       1.84361400
H       -1.28975200       2.23269600       2.81825000
Cl       0.83418600       0.03494400       3.22040000
Cl      -2.25435700      -0.61396800       2.40501200
O       -1.40278600       0.51051800      -0.26888200
O       -0.04019800      -1.52088600       0.89898800
C       -1.81474700      -1.58324500      -1.15218300
C       -0.36128000      -1.75018900      -1.37249700
C        1.78654900      -2.28587500      -0.42572600
C       -3.63451300      -0.04193500      -0.82891600
C       -4.49933300      -1.08803100      -1.17360500
C       -2.67792800      -2.60201600      -1.51812900
C       -4.04863000      -2.36666500      -1.47419200
C        0.10552300      -1.93174900      -2.66279900
C        1.45437500      -2.21726000      -2.85266000
C        2.25590200      -2.42256700      -1.73975100
H       -2.26368800      -3.55252300      -1.83268900
H       -4.75390900      -3.15377000      -1.71789900
H       -0.58903500      -1.84571600      -3.48974000
H        1.86425400      -2.32279700      -3.85130400
H        3.28462700      -2.71668700      -1.88632700
C        2.68004600      -2.66113800       0.76904800
N       -2.30212200      -0.37717200      -0.72915500
N        0.49197000      -1.83287600      -0.30431700
C       -4.12559500       1.40342800      -0.66787300
H       -5.55854000      -0.88185200      -1.21997700
C       -5.58378900       1.52485900      -1.16876500
C       -4.11089900       1.85162800       0.80790900
C       -3.26954500       2.36299200      -1.53589900
H       -5.86239300       2.58131500      -1.11462700
H       -5.68966200       1.19322600      -2.20779200
H       -6.28178300       0.96436900      -0.53759300
H       -4.73876600       1.19268300       1.41587300
H       -3.10389600       1.85847100       1.21479000
H       -4.51749700       2.86854300       0.85432800
C        3.46575700      -1.41720700       1.24341900
C        1.89443000      -3.29956300       1.94134900
C        3.72064900      -3.71933900       0.30989700
H        2.80334300      -0.67009100       1.67611400
H        4.17434900      -1.73544400       2.01651700
H        4.03051600      -0.97857100       0.41318900
H        4.46963600      -3.30492800      -0.37188600
H        4.25287300      -4.06363200       1.20115400
H        3.23876100      -4.58191800      -0.16299900
H       -3.72595600       3.35701400      -1.47942400
H       -2.24153200       2.43193300      -1.18342100
H       -3.27467100       2.04229900      -2.58445800
H        1.27582000      -2.58031900       2.47144500
H        1.26584700      -4.12337300       1.58386300
H        2.62713700      -3.71018800       2.64386200
