49
Properties=species:S:1:pos:R:3 pbc="F F F"
Si       0.58763300      -1.21129400       0.62157400
O       -1.00286900      -0.51452200      -0.25249800
C       -2.00073800      -1.16211100      -0.66663400
C       -3.22458500      -0.52311500      -1.08150800
H       -1.92745700      -2.24831200      -0.76549100
C       -3.37643300       0.88001100      -1.08836000
C       -4.28811200      -1.35114400      -1.49905400
C       -4.58001300       1.44004000      -1.49445600
H       -2.54623600       1.50664300      -0.78595100
C       -5.49290400      -0.78332100      -1.90186200
H       -4.15823800      -2.43008200      -1.49227700
C       -5.63862900       0.60972500      -1.89683700
H       -4.70340900       2.51887500      -1.50423500
H       -6.31578800      -1.41642800      -2.21887900
H       -6.57890800       1.05355500      -2.21208700
C       -3.01592700      -2.33865400       1.97162800
C       -1.72561100      -2.11668700       2.09334100
H       -3.39705600      -3.30547600       1.64488700
H       -3.74595700      -1.56765900       2.21542300
C       -0.45324800      -1.85427900       2.12071700
H        0.11370600      -2.01272800       3.03830200
Cl       2.55142200      -1.64997500       1.59132400
Cl       0.53026700      -3.09339500      -0.56556600
O        1.37094800      -0.34562200      -0.87721400
O        0.68280300       0.54170900       1.49274200
C        2.45544100       1.64213300      -0.30502100
C        1.14992400       2.25897500      -0.01386100
C       -0.88647100       2.24977800       1.24547300
C        3.69052600      -0.22908100      -1.15313600
C        4.87193300       0.51809000      -1.05943800
C        3.62528400       2.38916000      -0.21697800
C        4.84564200       1.82052800      -0.58061200
C        0.80151600       3.47776000      -0.58827100
C       -0.40301000       4.09261600      -0.24984700
C       -1.24014500       3.47827700       0.67301800
H        3.56228900       3.40711900       0.14812600
H        5.76233600       2.39411700      -0.49938100
H        1.48211500       3.92390200      -1.30329100
H       -0.68108300       5.03903200      -0.69995400
H       -2.18110500       3.92377200       0.97294700
C       -1.70231500       1.59527600       2.19234200
N        2.50958500       0.35101700      -0.74758900
N        0.30800600       1.66478600       0.88369200
C        3.66827800      -1.53385200      -1.68731100
H        5.79434800       0.04622700      -1.37544400
C        3.73329000      -2.63372300      -2.18550400
H        3.76482400      -3.61566900      -2.60692000
C       -2.45959300       1.10178700       2.99560900
H       -3.11477000       0.64625300       3.70670900
