49
Properties=species:S:1:pos:R:3 pbc="F F F"
Si       0.57445600      -1.16119300       0.76237800
O       -1.06339100      -0.45179000       0.02965800
C       -2.23328500      -0.90350600       0.14938800
C       -3.33432300      -0.38073500      -0.61789400
H       -2.43954500      -1.66986100       0.90158600
C       -3.15477900       0.63048900      -1.58783600
C       -4.62233100      -0.89275600      -0.35541000
C       -4.25501600       1.11603100      -2.28146400
H       -2.15758600       1.01298900      -1.78065200
C       -5.71963600      -0.39980600      -1.05471700
H       -4.74428100      -1.67152300       0.39283000
C       -5.53511200       0.60220900      -2.01585800
H       -4.12803600       1.89210600      -3.03031500
H       -6.71322000      -0.79025400      -0.85773400
H       -6.39146100       0.98650900      -2.56313000
C       -1.88820200      -3.54579900      -1.33191200
C       -0.73616600      -3.22394500      -0.78378800
H       -2.64071100      -4.10411900      -0.77609800
H       -2.11384500      -3.29063200      -2.36656900
C        0.35756500      -2.81949900      -0.20846600
H        1.25624500      -3.43479300      -0.25269400
Cl      -0.42732700      -1.82727300       2.63928400
Cl       2.61521300      -1.62464400       1.53504000
O        1.26873100      -0.37149700      -0.87837600
O        0.79631700       0.57468000       1.51916600
C        2.43274100       1.60234000      -0.44766500
C        1.15893200       2.24234200      -0.07653800
C       -0.80955300       2.26554300       1.28946700
C        3.55071000      -0.31588400      -1.34839200
C        4.75185600       0.40279700      -1.37099000
C        3.62216400       2.32292800      -0.46981300
C        4.79411300       1.71712100      -0.92279100
C        0.77356800       3.44061500      -0.66950500
C       -0.42097700       4.05439600      -0.29510900
C       -1.20720200       3.46555600       0.68657000
H        3.61375100       3.34883300      -0.12138800
H        5.72749800       2.26895700      -0.93063300
H        1.41194500       3.86518500      -1.43491900
H       -0.73116100       4.98142400      -0.76444900
H       -2.13761800       3.91261100       1.01504000
C       -1.56615900       1.65098000       2.30868800
N        2.41803200       0.30397200      -0.87072400
N        0.36772000       1.67708100       0.88285300
C        3.44231600      -1.63905200      -1.82953400
H        5.63559300      -0.09847500      -1.74696800
C        3.41375200      -2.76055300      -2.28168900
H        3.37630500      -3.75681000      -2.66796200
C       -2.26599300       1.17926700       3.17462100
H       -2.86775100       0.74216800       3.94256300
