49
Properties=species:S:1:pos:R:3 pbc="F F F"
Si      -0.07964500      -0.61230800       0.38471500
O        1.66205500      -0.18626100      -0.25529100
C        2.72145500      -0.26004400       0.42036800
C        4.01916100      -0.06366400      -0.16497700
H        2.65695900      -0.45439100       1.49536300
C        4.18497700       0.19006100      -1.54609100
C        5.14348600      -0.13037900       0.68666800
C        5.46189600       0.37361600      -2.05753200
H        3.31127400       0.23389700      -2.18812600
C        6.41944700       0.05634200       0.16437400
H        5.00118500      -0.33081500       1.74529900
C        6.57650500       0.30766100      -1.20448400
H        5.60190600       0.56647500      -3.11679800
H        7.28833800       0.00591900       0.81305200
H        7.57282400       0.45180400      -1.61330300
C        2.63756400      -3.48747700       1.04486700
C        1.51399900      -2.84327700       1.26418400
H        3.55671800      -3.21802600       1.56409300
H        2.68129200      -4.32561800       0.35003200
C        0.42383700      -2.14882400       1.42432600
H       -0.28646100      -2.42611100       2.20374600
Cl       0.22453900       0.74985100       2.21562000
Cl      -0.36011700      -1.76846800      -1.53103300
O       -0.59605800       0.86166800      -0.68331400
O       -1.87743100      -0.75316500       0.94004400
C       -2.66620900       1.70895300      -0.02441400
C       -3.30371100       0.45135800      -0.46007300
C       -3.46751800      -1.93630400      -0.28599800
C       -0.68687500       3.06035800       0.09598200
C       -1.45294800       4.13186800       0.57051200
C       -3.43122500       2.77096200       0.44646300
C       -2.82137900       3.98619000       0.75865900
C       -4.38422200       0.47047900      -1.33611900
C       -5.00872600      -0.72241300      -1.70153900
C       -4.55167600      -1.92217200      -1.17198800
H       -4.49767800       2.62681900       0.56955100
H       -3.41316900       4.81295700       1.13561800
H       -4.71184400       1.42347100      -1.73390700
H       -5.84467100      -0.71140900      -2.39222500
H       -5.01542300      -2.86868200      -1.42181600
C       -2.98571700      -3.11861800       0.31614400
N       -1.31715200       1.86715900      -0.16961500
N       -2.86798500      -0.74208200       0.04040600
C        0.69768500       3.16858600      -0.16079700
H       -0.94559600       5.06599300       0.77904900
C        1.87115700       3.35035300      -0.39043400
H        2.91312900       3.48714700      -0.58697000
C       -2.63669800      -4.16404200       0.81409500
H       -2.30708000      -5.08153800       1.25314400
