47
Properties=species:S:1:pos:R:3 pbc="F F F"
Si       0.59943400      -1.17239600       0.89518800
O       -1.14989700      -0.52093100       0.31910100
C       -1.69866400      -0.76266000      -0.78931400
C       -3.05291500      -0.39205000      -1.08260300
H       -1.11994000      -1.26140300      -1.57305100
C       -3.90131000       0.18778700      -0.11028900
C       -3.52642200      -0.62819500      -2.39283400
C       -5.19971000       0.53161300      -0.45730400
H       -3.53444100       0.33863900       0.89922200
C       -4.82849000      -0.27540400      -2.73145400
H       -2.86599600      -1.08430400      -3.12573200
C       -5.66097100       0.30369800      -1.76522400
H       -5.86285900       0.97074000       0.28158000
H       -5.19950800      -0.45223000      -3.73602900
H       -6.67989000       0.57453800      -2.02770000
C       -1.84802800      -4.07210200      -0.37668900
C       -0.68356600      -3.49187400      -0.20994600
H       -2.43291000      -3.91740900      -1.28278500
H       -2.25713500      -4.74127800       0.37919500
C        0.43669200      -2.85176400      -0.01988900
H        1.37568100      -3.28916700      -0.35853600
Cl      -0.31301500      -1.69301300       2.80089100
Cl       2.69713200      -1.47031500       1.53472200
O        1.19262200      -0.38962900      -0.87718300
O        0.82210900       0.67195800       1.50952000
C        2.27167500       1.66032800      -0.62078700
C        0.99698100       2.26201600      -0.19452000
C       -0.84024700       2.29674200       1.31927800
C        3.43861000      -0.24458500      -1.44410800
C        4.60469100       0.50388400      -1.58468000
C        3.42759700       2.42797600      -0.75650300
C        4.60312300       1.85099900      -1.23011300
C        0.50829900       3.41309900      -0.81299600
C       -0.67330400       4.00222100      -0.37363600
C       -1.34917100       3.44000100       0.70666000
H        3.39009000       3.47337900      -0.47384500
H        5.50590900       2.44339200      -1.32430900
H        1.06375500       3.82129600      -1.64907300
H       -1.06099400       4.88928100      -0.86136900
H       -2.26239800       3.87314700       1.09715400
N        2.29210100       0.34015300      -0.96481500
N        0.31525100       1.71690600       0.85607000
H        5.49154900       0.01460900      -1.96962900
C        3.36058200      -1.61701400      -1.82345000
C       -1.48083500       1.72362400       2.45603000
N       -2.08055300       1.35564400       3.37840300
N        3.35615000      -2.72189300      -2.17800500
