47
Properties=species:S:1:pos:R:3 pbc="F F F"
Si       0.57528700      -1.28955100       0.58496100
O       -0.99002200      -0.55120000      -0.26369100
C       -2.01932700      -1.19268800      -0.61873000
C       -3.22606100      -0.54322300      -1.05490400
H       -1.98038100      -2.28419700      -0.64976900
C       -3.32597200       0.86027300      -1.17521300
C       -4.33038100      -1.36143300      -1.37779200
C       -4.51908200       1.43136500      -1.59449800
H       -2.46264500       1.47714000      -0.95534200
C       -5.52428100      -0.78154900      -1.79378900
H       -4.23995600      -2.44055400      -1.28697800
C       -5.61886500       0.61206600      -1.89824700
H       -4.60313200       2.50940100      -1.69246200
H       -6.37849600      -1.40571900      -2.03656400
H       -6.55123600       1.06491000      -2.22365300
C       -3.04114800      -2.14168800       2.10526700
C       -1.73026500      -2.06014600       2.13511300
H       -3.54503300      -3.03211100       1.73181500
H       -3.65506200      -1.32264100       2.47695500
C       -0.43638800      -1.93290900       2.09154900
H        0.16332000      -2.23313700       2.95106600
Cl       2.55301300      -1.68814600       1.52349900
Cl       0.53800300      -3.10425600      -0.64710700
O        1.37125100      -0.33356600      -0.88902500
O        0.65047500       0.52897600       1.50572600
C        2.45489400       1.63941300      -0.27017600
C        1.14952700       2.25621500       0.01868200
C       -0.89743600       2.23820400       1.22891800
C        3.68709300      -0.21149800      -1.12252000
C        4.87650900       0.50601800      -1.01473500
C        3.63453500       2.37495700      -0.16076400
C        4.85355300       1.80640200      -0.51764900
C        0.80394800       3.48319100      -0.54622600
C       -0.40495900       4.09452600      -0.22594500
C       -1.25984100       3.46530000       0.67497600
H        3.57629900       3.38817300       0.21891000
H        5.77314200       2.37184700      -0.41879200
H        1.49495300       3.93853100      -1.24570500
H       -0.67658600       5.04474300      -0.67082900
H       -2.20948500       3.90137100       0.96181600
N        2.50091300       0.35858000      -0.73545800
N        0.30137100       1.64897200       0.90183500
H        5.79744800       0.02895200      -1.32755900
C        3.65988500      -1.52056100      -1.68692700
C       -1.73770200       1.56417600       2.16127100
N       -2.49485500       1.09899100       2.90732600
N        3.74293100      -2.55716000      -2.20099800
