47
Properties=species:S:1:pos:R:3 pbc="F F F"
Si      -0.04094200      -0.63363200       0.40634200
O        1.65687100      -0.24269300      -0.25757700
C        2.72520000      -0.03369900       0.38734100
C        4.00515700      -0.00324900      -0.26051000
H        2.67139800       0.18063900       1.45736300
C        4.14952300      -0.26186100      -1.64292600
C        5.13580400       0.30057400       0.52948500
C        5.41209700      -0.21723800      -2.21693100
H        3.27189700      -0.49496800      -2.23685700
C        6.39645800       0.34481300      -0.05591300
H        5.00933500       0.49475900       1.59116500
C        6.53299800       0.08519700      -1.42577000
H        5.53562800      -0.41588200      -3.27714200
H        7.27006400       0.57775500       0.54480100
H        7.51821200       0.11780500      -1.88274900
C        2.98185100      -2.75224700       1.85059200
C        1.70403100      -2.50225500       1.66936600
H        3.51309000      -2.37355500       2.72319200
H        3.54158300      -3.36956500       1.14893500
C        0.46843700      -2.17298200       1.43063600
H       -0.34920800      -2.79608000       1.79256600
Cl       0.18838100       0.78410400       2.17914700
Cl      -0.39126400      -1.85207000      -1.46373000
O       -0.59971200       0.82857700      -0.71145400
O       -1.88204900      -0.77053400       0.94978900
C       -2.68512700       1.67020100      -0.08995900
C       -3.30999400       0.39493500      -0.48835800
C       -3.45334500      -1.97284300      -0.26514600
C       -0.72728600       3.02427700       0.04125300
C       -1.48062400       4.11333200       0.47155300
C       -3.45659800       2.74847600       0.34329700
C       -2.85736000       3.97147600       0.63299900
C       -4.38938800       0.37417000      -1.37135000
C       -5.00033100      -0.83039600      -1.71011100
C       -4.52983000      -2.01458300      -1.14779000
H       -4.52466900       2.60658100       0.45644800
H       -3.45653200       4.80675100       0.97700600
H       -4.72513800       1.31233300      -1.79701200
H       -5.83291900      -0.84631400      -2.40411200
H       -4.97806400      -2.97453900      -1.37412800
N       -1.33806100       1.82691900      -0.22813000
N       -2.86399700      -0.77589100       0.05070200
H       -0.97363200       5.04970400       0.67161200
C        0.68095600       3.10545300      -0.17385600
C       -2.95048600      -3.14041800       0.38140400
N       -2.61377000      -4.12361600       0.89732300
N        1.81831600       3.24991100      -0.35187700
