65
Properties=species:S:1:pos:R:3 pbc="F F F"
Si      -0.38324400      -0.47893400       0.25853000
O        1.31257700      -1.11859700      -0.34642200
C        2.04536400      -1.96956500       0.22357200
C        3.35311400      -2.31329200      -0.27251300
H        1.66669200      -2.50456600       1.09813600
C        3.85262400      -1.79039700      -1.48433100
C        4.13029700      -3.21417100       0.48626600
C        5.11743000      -2.16162600      -1.92085400
H        3.23767800      -1.10927800      -2.06053700
C        5.40026900      -3.57334700       0.04693400
H        3.73014000      -3.61283200       1.41473800
C        5.89178900      -3.04706500      -1.15519100
H        5.50844900      -1.76710500      -2.85390800
H        6.00611900      -4.26051400       0.62945000
H        6.88164000      -3.33156500      -1.50162700
C        2.75986400      -0.40051200       2.78836600
C        1.56069400      -0.05211100       2.37972700
H        3.63495600       0.19920700       2.54657200
H        2.90819700      -1.29605200       3.39097500
C        0.37756100       0.21717600       1.90888100
H       -0.28537900       0.84909600       2.50233500
Cl      -1.15370300      -1.20029200      -1.72457000
Cl      -0.97748300      -2.42179600       1.23871600
O       -2.01412900       0.32356400       0.76233600
O        0.02426300       1.10437400      -0.74664800
C       -2.43837800       2.18214300      -0.55792600
C       -1.27411000       2.83792500       0.07459100
C        1.11281000       2.89212700       0.34615400
C       -3.92080700       0.29149500      -0.61435700
C       -4.67560900       0.95497000      -1.59086200
C       -3.20118200       2.84745700      -1.50423100
C       -4.32192500       2.21603400      -2.04740800
C       -1.41245500       4.03435500       0.75868000
C       -0.27801300       4.65616600       1.28474400
C        0.96781400       4.09003000       1.06042400
H       -2.90159400       3.84244300      -1.81114200
H       -4.92084200       2.71637600      -2.80069700
H       -2.40276100       4.45769000       0.87648900
H       -0.36797400       5.58583200       1.83615100
H        1.87037100       4.58068900       1.40369700
N       -2.79567500       0.92425900      -0.15406400
N       -0.03383600       2.27946700      -0.08977600
H       -5.56569200       0.45766800      -1.95703900
C       -4.34193100      -1.01163900      -0.07707400
C       -4.38700100      -1.26230300       1.30466800
C       -4.79444300      -1.99239100      -0.97676100
C       -4.88576700      -2.47564100       1.77387300
H       -4.04260700      -0.51050100       2.00442000
C       -5.26936400      -3.21319700      -0.50126900
H       -4.74574600      -1.80497600      -2.04504400
C       -5.32026300      -3.45557900       0.87539500
H       -4.92675200      -2.65938900       2.84357700
H       -5.59684700      -3.97373300      -1.20411600
H       -5.69499700      -4.40551900       1.24654600
C        2.44560900       2.35862900       0.02192700
C        2.76519300       1.89999100      -1.26845400
C        3.45478700       2.43061300       0.99833400
C        4.07454100       1.53075700      -1.56920000
H        1.99912100       1.84955500      -2.03218900
C        4.75630300       2.03365300       0.69706200
H        3.21153800       2.77359600       1.99895800
C        5.07058700       1.58552400      -0.58911800
H        4.31723100       1.19461800      -2.57270500
H        5.52218000       2.07387200       1.46612900
H        6.08490900       1.27788300      -0.82659400
