65
Properties=species:S:1:pos:R:3 pbc="F F F"
Si       0.35575600      -0.51903400      -0.47218400
O       -1.49097500      -1.13321300      -0.51765500
C       -2.24672000      -1.25946700       0.47547500
C       -3.57939800      -1.79032000       0.37138500
H       -1.88567000      -0.96335900       1.46578900
C       -4.15993400      -2.10649700      -0.87599000
C       -4.31013000      -1.97357300       1.56370800
C       -5.45925600      -2.59427000      -0.92000200
H       -3.58577300      -1.95405500      -1.78392500
C       -5.60718200      -2.47139000       1.51165100
H       -3.85195500      -1.71884000       2.51553100
C       -6.18096900      -2.77665200       0.27053600
H       -5.91889300      -2.83422200      -1.87395000
H       -6.17457400      -2.61744100       2.42561600
H       -7.19737100      -3.15853000       0.22829800
C       -0.21580900      -3.66111800       1.98992400
C        0.28738600      -2.50195400       1.64173700
H        0.30928000      -4.59118500       1.77590700
H       -1.17116200      -3.72900300       2.50954800
C        0.74036800      -1.34749500       1.23743400
H        1.36683900      -0.77784000       1.92596200
Cl      -0.22020700       0.61682600      -2.33887500
Cl       0.89927400      -2.28619700      -1.70263400
O       -0.18998900       0.93777800       0.64290800
O        2.07328200       0.26878300      -0.67576800
C        1.13148700       2.76730500       0.14645200
C        2.26884300       2.08104900       0.79858300
C        3.89759400       0.31670000       0.79822300
C       -1.23133100       2.84276800      -0.25834700
C       -1.07095900       4.10414900      -0.83864400
C        1.29194500       4.02741800      -0.41194200
C        0.18328800       4.69259200      -0.93803800
C        2.95395500       2.74144900       1.80884100
C        4.10908500       2.17963500       2.35027700
C        4.57784200       0.98586500       1.82409200
H        2.28292400       4.46395200      -0.43673400
H        0.29843300       5.66862500      -1.39679900
H        2.56869000       3.69255000       2.15663100
H        4.63991000       2.67795800       3.15407400
H        5.49039300       0.53211600       2.19149000
N       -0.10804100       2.19973600       0.18045100
N        2.71673100       0.86119100       0.34848000
H       -1.96075100       4.61122600      -1.19267700
C       -2.56045500       2.23327100      -0.07798100
C       -2.99509400       1.82789900       1.19585200
C       -3.43668000       2.16279000      -1.17059200
C       -4.30213500       1.37608000       1.37017500
H       -2.31923300       1.88821000       2.04257500
C       -4.73445800       1.68041900      -0.99234300
H       -3.09117400       2.46254700      -2.15482800
C       -5.17151000       1.29562700       0.27786500
H       -4.63862900       1.07559100       2.35769300
H       -5.40217500       1.60689700      -1.84563900
H       -6.18215500       0.92277800       0.41551500
C        4.50395200      -0.87026000       0.16277700
C        5.84213900      -0.74678500      -0.26143600
C        3.84813500      -2.10135700       0.02658000
C        6.50181400      -1.83512000      -0.83017100
H        6.35296000       0.20705400      -0.16563900
C        4.51998300      -3.19026600      -0.52841800
H        2.82831200      -2.21684600       0.36446300
C        5.84250400      -3.06176600      -0.96210600
H        7.52735000      -1.72339700      -1.17021600
H        4.00271800      -4.14053600      -0.62388200
H        6.35781700      -3.91208200      -1.40030300
