65
Properties=species:S:1:pos:R:3 pbc="F F F"
Si      -0.39189000      -0.50448400       0.27972700
O        1.19483900      -1.40371200      -0.27062800
C        2.41208100      -1.11089100      -0.15842000
C        3.44155700      -2.09366700      -0.39037600
H        2.70738700      -0.09054700       0.09413800
C        3.12437500      -3.41966600      -0.76272500
C        4.78771100      -1.70823600      -0.22120500
C        4.14682600      -4.33764700      -0.96284600
H        2.08441800      -3.70342000      -0.88702500
C        5.80544600      -2.63543800      -0.42072200
H        5.01678000      -0.68795900       0.06837100
C        5.48493300      -3.94729800      -0.79216100
H        3.91285900      -5.35833400      -1.25002400
H        6.84300500      -2.34424000      -0.28812800
H        6.27946600      -4.67174500      -0.94898100
C        2.68144800      -0.54669100       2.94095000
C        1.53358400      -0.14477800       2.44466600
H        3.61040400      -0.02403900       2.71786100
H        2.73460700      -1.40792800       3.60588900
C        0.39900600       0.20177600       1.90762500
H       -0.22000800       0.92004600       2.44881300
Cl      -1.18071400      -1.16290600      -1.71899700
Cl      -1.03546000      -2.40737900       1.26285400
O       -1.98726300       0.36447200       0.76771000
O        0.12400600       1.09179500      -0.73428200
C       -2.36861600       2.19375700      -0.59452500
C       -1.20295900       2.83686200       0.04827000
C        1.17600200       2.91653900       0.32222300
C       -3.89711300       0.34055500      -0.61082600
C       -4.62851000       0.99819600      -1.60929900
C       -3.10466500       2.85380000      -1.56447900
C       -4.23765400       2.23574900      -2.09872200
C       -1.35012800       4.02782000       0.74189500
C       -0.22622700       4.65240500       1.28490400
C        1.02552800       4.10164600       1.05162000
H       -2.77885500       3.83372200      -1.89275600
H       -4.81826200       2.73016400      -2.87006100
H       -2.34384400       4.44489700       0.85364900
H       -0.32746000       5.57333000       1.84870700
H        1.92625100       4.59687700       1.39396500
N       -2.75943900       0.95790800      -0.16197900
N        0.03989300       2.28016000      -0.10716600
H       -5.52929300       0.51506600      -1.96821200
C       -4.35047000      -0.93824200      -0.04396400
C       -4.83003900      -1.92743300      -0.92035200
C       -4.39752000      -1.15634800       1.34322800
C       -5.33523100      -3.12418200      -0.41609200
H       -4.77807000      -1.76628400      -1.99273800
C       -4.92651900      -2.34509400       1.84098000
H       -4.02997800      -0.39843000       2.02439800
C       -5.38915300      -3.33334300       0.96595600
H       -5.68360000      -3.89212600      -1.10056700
H       -4.96869900      -2.50375800       2.91461600
H       -5.78732600      -4.26450800       1.35954100
C        2.51104400       2.42775200      -0.05775700
C        2.79861600       2.08107400      -1.39099100
C        3.54349300       2.43979900       0.89513800
C        4.10540300       1.76925300      -1.76110700
H        2.00634200       2.06748600      -2.13004700
C        4.84659300       2.11259100       0.51976500
H        3.32081700       2.69290600       1.92695300
C        5.13143300       1.78685500      -0.81006100
H        4.32262000       1.51226500      -2.79349400
H        5.63684500       2.11343800       1.26457400
H        6.14751600       1.53899700      -1.10310900
