65
Properties=species:S:1:pos:R:3 pbc="F F F"
Si      -0.56567400       0.35187700       1.03019100
O        0.82492400       0.83744300      -0.26412800
C        1.43334600       1.93241400      -0.37191700
C        2.57135200       2.09904900      -1.24445700
H        1.06875100       2.80460900       0.17612100
C        2.98413400       1.08686000      -2.13697800
C        3.26689800       3.32480300      -1.19645900
C        4.08909900       1.29557100      -2.95174900
H        2.42378900       0.16029800      -2.18798400
C        4.37875400       3.52419900      -2.00965100
H        2.93580900       4.10010000      -0.51070300
C        4.79014600       2.51024100      -2.88383400
H        4.40888300       0.52293500      -3.64463000
H        4.92344200       4.46236200      -1.96807300
H        5.65569800       2.66759500      -3.52138900
C        2.76904500       2.12710500       2.40283800
C        1.72227100       1.33660800       2.50164800
H        2.71238200       3.17827200       2.68407600
H        3.72766000       1.74150900       2.06167500
C        0.67477600       0.56869900       2.50000200
H        0.44266000      -0.03201500       3.37967400
Cl      -2.19866400      -0.49070600       2.30118600
Cl      -1.37021700       2.43486000       1.05738300
O       -1.47981100       0.08183400      -0.59860500
O        0.04864400      -1.47378000       0.83971600
C       -1.69384900      -2.18243700      -1.09677800
C       -0.23706000      -2.23966700      -1.32611000
C        1.96762900      -2.04347100      -0.39187900
C       -3.63867400      -0.84334600      -0.65255700
C       -4.42567300      -1.99192000      -0.80430800
C       -2.47836000      -3.31216200      -1.27273700
C       -3.86017700      -3.22385700      -1.09791300
C        0.28054000      -2.70122600      -2.52790700
C        1.66275300      -2.81439000      -2.68024700
C        2.48855200      -2.49672600      -1.61001700
H       -1.99426000      -4.24655500      -1.52991400
H       -4.48474400      -4.10285400      -1.21524600
H       -0.40512500      -2.95986100      -3.32605600
H        2.08508300      -3.16541200      -3.61551600
H        3.56314700      -2.61443900      -1.68140400
N       -2.27986600      -0.99050800      -0.76405200
N        0.60457900      -1.90554100      -0.30035600
H       -5.49903700      -1.87592800      -0.71493100
C       -4.25488100       0.47546800      -0.43907300
C       -3.90192800       1.58629100      -1.22295500
C       -5.29261700       0.58847900       0.50196600
C       -4.58918900       2.78879200      -1.07126500
H       -3.10191500       1.50504600      -1.94929600
C       -5.95779000       1.80197400       0.66687700
H       -5.55470600      -0.26556900       1.11887900
C       -5.61128500       2.90296900      -0.12336900
H       -4.31926200       3.64119400      -1.68796500
H       -6.74389200       1.88773500       1.41142900
H       -6.13395000       3.84732200       0.00141500
C        2.83916500      -1.74528100       0.75580300
C        2.56311300      -2.23669700       2.04365800
C        4.02102900      -1.01822000       0.53026000
C        3.45568200      -1.99548400       3.08504400
H        1.65790100      -2.80340000       2.22462100
C        4.90035300      -0.76474700       1.58164100
H        4.23612600      -0.62901800      -0.45955900
C        4.61957000      -1.25203300       2.86118700
H        3.23873200      -2.38298900       4.07617900
H        5.79986800      -0.18315600       1.40154000
H        5.30399900      -1.05345500       3.68111100
