65
Properties=species:S:1:pos:R:3 pbc="F F F"
Si      -0.56386500       0.58943700       0.87892300
O        0.88822500       0.62471700      -0.54125900
C        1.71818700       1.54886400      -0.68496600
C        2.78560000       1.49515700      -1.65108600
H        1.65073500       2.43691500      -0.04671200
C        2.89181900       0.44807100      -2.59380100
C        3.75838400       2.51512600      -1.60687500
C        3.96722100       0.42543600      -3.47058300
H        2.12710900      -0.32105300      -2.62314200
C        4.83924400       2.47947500      -2.48358800
H        3.66126100       3.31308400      -0.87525400
C        4.94169700       1.43684800      -3.41204500
H        4.05763900      -0.37102100      -4.20305600
H        5.59666900       3.25630900      -2.44981800
H        5.78263400       1.41050900      -4.09949200
C        1.76778200       3.49810100       2.57032100
C        1.20558100       2.32114000       2.42481700
H        1.28043700       4.29144500       3.13589100
H        2.73921800       3.72032600       2.12900900
C        0.64841700       1.15373600       2.26140200
H        0.86933300       0.37592900       2.99254200
Cl      -2.24125100       0.19426200       2.28661100
Cl      -1.21971700       2.59759100       0.21440700
O       -1.46461700      -0.11684800      -0.62360800
O        0.03576800      -1.22245300       1.19661200
C       -1.72772700      -2.42582600      -0.46761100
C       -0.27247600      -2.56981700      -0.66267600
C        1.94184900      -2.10588400       0.14237500
C       -3.64369600      -0.97429200      -0.44197900
C       -4.45670100      -2.10331300      -0.28011300
C       -2.53824300      -3.54325800      -0.33476000
C       -3.91860500      -3.37994700      -0.21181900
C        0.23577200      -3.35829400      -1.68564700
C        1.61589600      -3.50602300      -1.81894600
C        2.45299500      -2.88354200      -0.90233000
H       -2.07662600      -4.52309700      -0.31647200
H       -4.56351800      -4.24351500      -0.09013300
H       -0.45737700      -3.83292600      -2.36943500
H        2.02823600      -4.10960100      -2.62016200
H        3.52852500      -3.00118800      -0.95791200
N       -2.28751800      -1.17580900      -0.48919200
N        0.57814900      -1.95980300       0.21725900
H       -5.52788200      -1.94605300      -0.24291300
C       -4.22856000       0.36488400      -0.61303400
C       -3.83583700       1.20834000      -1.66543600
C       -5.27726200       0.75595900       0.23729100
C       -4.49330400       2.42036600      -1.86606100
H       -3.02857900       0.91390100      -2.32527800
C       -5.91302600       1.98121800       0.04649600
H       -5.57010200       0.11192700       1.06081500
C       -5.52572000       2.81389000      -1.00885000
H       -4.19133700       3.06334700      -2.68770500
H       -6.70736000       2.28584700       0.72169600
H       -6.02484300       3.76702300      -1.16025900
C        2.82695800      -1.46250700       1.12738100
C        2.59593300      -1.55532400       2.51069900
C        3.97028800      -0.79193700       0.65906800
C        3.49002900      -0.97061000       3.40525500
H        1.72433500      -2.08292300       2.87940700
C        4.84626600      -0.18605500       1.55865800
H        4.15578500      -0.72249300      -0.40762600
C        4.60727400      -0.27316500       2.93348200
H        3.30808400      -1.05078800       4.47292400
H        5.71230100       0.35238000       1.18494700
H        5.29026000       0.19715000       3.63523600
