65
Properties=species:S:1:pos:R:3 pbc="F F F"
Si       0.36872600      -0.39909300      -0.51302600
O       -1.49054900      -0.95095500      -0.30482300
C       -1.84044400      -2.11095500       0.02136100
C       -3.21892900      -2.50998200       0.10873900
H       -1.07102900      -2.85786700       0.24690100
C       -4.26958200      -1.63793100      -0.25385000
C       -3.50042000      -3.81640500       0.56387700
C       -5.58302300      -2.07494100      -0.15478500
H       -4.03578200      -0.63955300      -0.60497600
C       -4.82094100      -4.24298300       0.66574300
H       -2.68034500      -4.47718600       0.83259300
C       -5.85829600      -3.37306100       0.30578400
H       -6.39883500      -1.41479100      -0.43333500
H       -5.04652000      -5.24482400       1.01776200
H       -6.88934200      -3.70798700       0.38018400
C       -0.44456900      -1.40254600       3.31347600
C        0.28000800      -1.35864800       2.22017700
H       -1.19317800      -2.18013800       3.46353500
H       -0.31407400      -0.67118500       4.11027200
C        0.94138600      -1.30672900       1.09688300
H        1.87340400      -1.86578000       1.01091900
Cl      -0.38760000       0.63371600      -2.36327500
Cl       0.89217100      -2.22560300      -1.73882500
O       -0.11248500       1.06765400       0.58944000
O        2.01121600       0.43861400      -0.87214800
C        1.22313400       2.88511300       0.06989300
C        2.36069900       2.15074100       0.66440500
C        3.80214400       0.22762300       0.64364300
C       -1.15805100       3.00517700      -0.23272900
C       -0.99297300       4.28906900      -0.76830000
C        1.38251700       4.16340300      -0.44101600
C        0.26334000       4.86444400      -0.89443700
C        3.08763200       2.71674100       1.70046600
C        4.17061700       2.02273400       2.24278000
C        4.51828200       0.79133700       1.70838100
H        2.37788400       4.58913900      -0.48055500
H        0.37270000       5.85937900      -1.31211700
H        2.78634700       3.68603800       2.07918400
H        4.74115700       2.44960700       3.06048900
H        5.37558700       0.24296500       2.07935800
N       -0.02524300       2.32627500       0.12879400
N        2.72163300       0.92580800       0.16880100
H       -1.88584300       4.83107900      -1.05572000
C       -2.49640400       2.43541100      -0.00521400
C       -2.83922800       1.83261600       1.21857800
C       -3.48383400       2.61445600      -0.98915100
C       -4.15514900       1.44132900       1.45631800
H       -2.08501500       1.68850200       1.98267700
C       -4.79464500       2.20173900      -0.75187800
H       -3.21869400       3.06108800      -1.94257700
C       -5.13567400       1.62585000       0.47556000
H       -4.41479100       0.98778600       2.40836000
H       -5.54721200       2.33167200      -1.52403600
H       -6.15807700       1.31072700       0.66338200
C        4.21351800      -1.05314000       0.04552900
C        4.32961800      -1.22684500      -1.34408600
C        4.57681900      -2.10249700       0.91020500
C        4.80941700      -2.43152700      -1.85393100
H        4.05495300      -0.42435000      -2.01719200
C        5.03005000      -3.31376500       0.39118400
H        4.47917400      -1.97328500       1.98416100
C        5.15182400      -3.47870600      -0.99248000
H        4.90608300      -2.55559900      -2.92845600
H        5.28786400      -4.12516400       1.06546300
H        5.51050600      -4.42069200      -1.39788200
