65
Properties=species:S:1:pos:R:3 pbc="F F F"
Si      -0.53213300       1.56567500       0.95327700
O        1.06775700       1.26969100      -0.12567300
C        2.14980900       1.90881700      -0.16841600
C        3.18659600       1.57619700      -1.11287600
H        2.35068900       2.68247300       0.57815500
C        2.99895600       0.59121300      -2.10824400
C        4.43535300       2.21806200      -0.97613000
C        4.05303300       0.25493200      -2.94547100
H        2.03101700       0.11134300      -2.20697000
C        5.48947500       1.86825500      -1.81505500
H        4.56604800       2.97449700      -0.20675900
C        5.29770000       0.88851500      -2.79651600
H        3.91878300      -0.50033100      -3.71401000
H        6.45519700       2.35247900      -1.70910100
H        6.12051300       0.61502500      -3.45119900
C        0.96818900       4.51453500      -1.32819600
C        0.01936600       3.91491600      -0.64301700
H        1.08886100       4.34277100      -2.39714100
H        1.64162000       5.22740200      -0.85370800
C       -0.85214600       3.24796800       0.05654500
H       -1.86315800       3.63976700       0.17597400
Cl       0.70206400       2.38949100       2.64310100
Cl      -2.42833500       1.57850900       2.12605900
O       -1.34772700       0.68470200      -0.53794600
O       -0.22640500      -0.16872700       1.64713300
C       -1.67244700      -1.61714500      -0.16849400
C       -0.22662600      -1.80704600      -0.02422600
C        1.77544400      -1.19999400       1.11599600
C       -3.50072500      -0.12905600      -0.49400400
C       -4.43094800      -1.17065600      -0.45120000
C       -2.56587000      -2.68597200      -0.12712200
C       -3.93060100      -2.47264900      -0.26842700
C        0.49165700      -2.75433600      -0.75344900
C        1.86009900      -2.89707800      -0.56773700
C        2.53927900      -2.10354100       0.37652100
H       -2.17131100      -3.68264000       0.03266600
H       -4.61040400      -3.31672500      -0.24292600
H       -0.03686500      -3.35427400      -1.48507800
H        2.40747600      -3.62656500      -1.15396000
H        2.17914800      -0.52993100       1.86223600
N       -2.17679300      -0.36239000      -0.37618200
N        0.45077700      -1.06557300       0.90020100
H       -3.76186600       0.91156100      -0.62060100
C        3.99949900      -2.16173600       0.56898000
C        4.57801000      -1.89648800       1.82412000
C        4.83754300      -2.44942400      -0.52369700
C        5.96307200      -1.92008000       1.98023200
H        3.94440600      -1.69550800       2.68325100
C        6.22233800      -2.46526900      -0.36521000
H        4.40590600      -2.62465300      -1.50421200
C        6.78889600      -2.20108100       0.88616900
H        6.39754100      -1.72386600       2.95616200
H        6.85921600      -2.67336700      -1.22016800
H        7.86826600      -2.21359500       1.00864700
C       -5.87147500      -0.88455200      -0.58925600
C       -6.32308400       0.19942400      -1.36583700
C       -6.81830600      -1.69850900       0.06044000
C       -7.68726900       0.45861100      -1.49113700
H       -5.60961600       0.82462300      -1.89488300
C       -8.18135900      -1.43244000      -0.06216300
H       -6.48646500      -2.52264500       0.68475900
C       -8.62018900      -0.35495400      -0.83915200
H       -8.02193200       1.29191200      -2.10221500
H       -8.90039700      -2.06151100       0.45471300
H       -9.68271400      -0.14992000      -0.93531100
