65
Properties=species:S:1:pos:R:3 pbc="F F F"
Si      -0.60081200       1.64768000       0.67545800
O        1.00270900       1.33972100      -0.48833300
C        1.91260100       2.18360700      -0.66627300
C        3.16977200       1.85951400      -1.28652900
H        1.76333100       3.21174500      -0.31656000
C        3.44460800       0.57322500      -1.80357200
C        4.16173700       2.86387300      -1.31606900
C        4.70083000       0.29930400      -2.32379100
H        2.66829600      -0.18355100      -1.79019100
C        5.42042000       2.57884500      -1.83653900
H        3.93548000       3.84932700      -0.91755400
C        5.68860100       1.29812500      -2.33485400
H        4.92488100      -0.68774400      -2.71407800
H        6.19046900       3.34369500      -1.85409000
H        6.67243200       1.07363500      -2.73751700
C        2.80767700       1.92992700       2.76668700
C        1.61342000       2.32780400       2.39001100
H        3.70606500       2.26030800       2.24586500
H        2.93980500       1.28680000       3.63661700
C        0.43025500       2.65930800       1.95540700
H       -0.05159700       3.56611400       2.32176300
Cl      -2.46073600       1.70104300       1.90984200
Cl      -1.11396500       3.44105500      -0.56760100
O       -1.36179700       0.59144300      -0.67874200
O       -0.11609100       0.01533700       1.51094800
C       -1.73725100      -1.63124600      -0.00062900
C       -0.29301400      -1.84850900       0.09942600
C        1.81162600      -1.10321200       0.92587200
C       -3.53489600      -0.14973200      -0.50707400
C       -4.49078800      -1.15047600      -0.31643100
C       -2.66016500      -2.65684900       0.20107700
C       -4.02001100      -2.42598700       0.04578400
C        0.34339100      -2.93924700      -0.49477100
C        1.71660800      -3.10414300      -0.38195300
C        2.49187500      -2.16369200       0.32458500
H       -2.29090900      -3.63421200       0.48892900
H       -4.72075400      -3.23972300       0.19340500
H       -0.25673800      -3.64144100      -1.06115500
H        2.19072600      -3.96041600      -0.84743600
H        2.28701300      -0.30764800       1.48724700
N       -2.21729400      -0.40332100      -0.36654000
N        0.47281700      -0.98072300       0.82312000
H       -3.76753300       0.87161000      -0.77195400
C        3.96215700      -2.23877400       0.41108500
C        4.65531600      -1.66937800       1.49646300
C        4.69893400      -2.85306200      -0.61860500
C        6.04759500      -1.70991700       1.54538100
H        4.10721300      -1.21372900       2.31549400
C        6.09144600      -2.88916900      -0.56797800
H        4.18570400      -3.27269500      -1.47850700
C        6.77041100      -2.31678500       0.51259200
H        6.56811600      -1.27345100       2.39288700
H        6.64660800      -3.35503300      -1.37700500
H        7.85573300      -2.34402300       0.55052800
C       -5.92399600      -0.85241300      -0.49296100
C       -6.34962500       0.12648100      -1.41097300
C       -6.89016000      -1.54968700       0.25657100
C       -7.70708000       0.39798900      -1.57547800
H       -5.62177000       0.65686500      -2.01812500
C       -8.24643800      -1.27098900       0.09351400
H       -6.57934400      -2.29025100       0.98762400
C       -8.65932400      -0.29805200      -0.82323700
H       -8.02134100       1.14843000      -2.29509300
H       -8.98037800      -1.80825000       0.68728400
H       -9.71664600      -0.08335000      -0.95034700
