65
Properties=species:S:1:pos:R:3 pbc="F F F"
Si       0.09558400       0.91037700       0.81456100
O       -1.31479300       2.08855400       0.28627400
C       -1.41037200       3.33071200       0.46866100
C       -2.42794800       4.12411500      -0.17396600
H       -0.73030500       3.82407900       1.16917600
C       -3.35280800       3.56467100      -1.08328400
C       -2.48283900       5.49889000       0.13796300
C       -4.31492600       4.37757600      -1.66790300
H       -3.29824500       2.50590000      -1.31535000
C       -3.45046400       6.30622400      -0.45240600
H       -1.76448000       5.91640800       0.83855500
C       -4.36414400       5.74567400      -1.35359100
H       -5.03032800       3.95732100      -2.36843300
H       -3.49700400       7.36475200      -0.21594500
H       -5.11974000       6.37545100      -1.81515600
C        1.00323100       4.18119400      -1.29890100
C        1.18324000       2.92979500      -0.94064100
H        1.51056100       4.99435400      -0.78095100
H        0.36209800       4.44135100      -2.13999900
C        1.26880000       1.70029000      -0.52302300
H        2.02840500       1.06466900      -0.97783300
Cl      -1.43766600       0.00826700       2.20125000
Cl       0.87746600       2.20749700       2.47797900
O       -0.48181900      -0.20448400      -0.62019600
O        1.23798500      -0.48594400       1.34310700
C        0.16179700      -2.43644000      -0.31771500
C        1.57284100      -2.04086500      -0.38570100
C        3.35304500      -0.68580200       0.44102400
C       -2.13226100      -1.80335700      -0.38099000
C       -2.56164600      -3.12838600      -0.26870100
C       -0.22368700      -3.77228300      -0.21547000
C       -1.56751500      -4.12053800      -0.19151300
C        2.47931700      -2.68391200      -1.22848600
C        3.81934000      -2.32351500      -1.23842000
C        4.28941600      -1.30009900      -0.39356100
H        0.54917500      -4.52855100      -0.14413400
H       -1.84831100      -5.16527500      -0.12185400
H        2.10867800      -3.46689400      -1.87926200
H        4.50802200      -2.84411700      -1.89390800
H        3.58647400       0.11449800       1.12970000
N       -0.82112400      -1.49156700      -0.41885500
N        2.05461900      -1.05895200       0.43614200
H       -2.79738500      -0.95411900      -0.43902900
C        5.70006900      -0.87146200      -0.37135000
C        6.28295100      -0.36609100       0.80634600
C        6.48459500      -0.96175300      -1.53666600
C        7.61756100       0.03646200       0.81640500
H        5.70259000      -0.31411200       1.72288600
C        7.81721000      -0.55250500      -1.52390100
H        6.04443300      -1.32645700      -2.46009100
C        8.38791700      -0.05363900      -0.34794600
H        8.05771500       0.41405400       1.73477700
H        8.40792600      -0.61666900      -2.43312700
H        9.42709500       0.26290100      -0.33873600
C       -4.00264400      -3.43973800      -0.22539000
C       -4.93851300      -2.62587500      -0.89149200
C       -4.46303600      -4.55971200       0.49233100
C       -6.29865700      -2.92748700      -0.84318400
H       -4.60097500      -1.77060500      -1.46941800
C       -5.82470700      -4.85484000       0.54348800
H       -3.75812200      -5.18397500       1.03334800
C       -6.74622400      -4.04131900      -0.12465400
H       -7.00828000      -2.29655100      -1.37061900
H       -6.16708500      -5.71541100       1.11098000
H       -7.80675200      -4.27354500      -0.08498100
