71
Properties=species:S:1:pos:R:3 pbc="F F F"
Si       0.07633500       1.10429800       1.10703500
O       -1.25111600       2.44747300       0.70756000
C       -1.92440300       2.61754400      -0.33986000
C       -2.71599800       3.80111500      -0.56241000
H       -1.94112300       1.83678300      -1.10625200
C       -2.75281000       4.86217700       0.36967000
C       -3.46689000       3.87687300      -1.75481100
C       -3.53296700       5.97938400       0.10259900
H       -2.16884500       4.79045000       1.28158200
C       -4.24600900       5.00010000      -2.01393100
H       -3.42663400       3.05463300      -2.46481900
C       -4.27795200       6.04890100      -1.08610900
H       -3.56787500       6.80051800       0.81219700
H       -4.82514000       5.06434900      -2.92997700
H       -4.88543300       6.92690700      -1.28777200
C        0.57428300       3.18832800      -2.27052300
C        1.01114000       2.59305400      -1.18338900
H        0.56148900       2.67756000      -3.23272200
H        0.23768900       4.22420400      -2.24626200
C        1.33158400       2.01029800      -0.06446800
H        2.35807300       2.08732400       0.29426400
Cl      -1.50744600       0.14848300       2.38477200
Cl       0.80687600       2.30749500       2.85384300
O       -0.50278400       0.10307300      -0.42943500
O        1.18783900      -0.34381600       1.55860800
C        0.13772300      -2.12675300      -0.20863700
C        1.53256500      -1.66588800      -0.34823000
C        3.30002700      -0.38959000       0.62765500
C       -2.16407100      -1.49471700      -0.26936100
C       -2.57931100      -2.82285600      -0.14472000
C       -0.22049900      -3.46899500      -0.03095200
C       -1.58062100      -3.79414500      -0.00568700
C        2.39403200      -2.10161800      -1.36460800
C        3.72423300      -1.67045900      -1.33990500
C        4.21280500      -0.82647100      -0.33507600
H       -1.86203300      -4.83476000       0.11833800
H        4.39575600      -2.01665100      -2.11887900
H        3.53870700       0.29886200       1.42604000
N       -0.85548200      -1.18850700      -0.29977400
N        2.01985200      -0.79831800       0.59260100
H       -2.83468200      -0.64943800      -0.31721300
C        5.61575600      -0.37269300      -0.28369300
C        6.24575500      -0.12799600       0.95059800
C        6.34158100      -0.17526600      -1.47270300
C        7.57196800       0.30077100       0.99306300
H        5.70722000      -0.29850200       1.87866000
C        7.66555500       0.25956000      -1.42637500
H        5.86059200      -0.33456800      -2.43331800
C        8.28485500       0.49743300      -0.19447100
H        8.04982100       0.47574800       1.95266100
H        8.21156200       0.41997900      -2.35166500
H        9.31696800       0.83480000      -0.16033100
C       -4.01813300      -3.15102100      -0.12957800
C       -4.93619000      -2.38613300      -0.87262600
C       -4.49242000      -4.23709100       0.62890100
C       -6.29446800      -2.70153600      -0.85870700
H       -4.58388100      -1.56010400      -1.48369100
C       -5.85192100      -4.54686500       0.64464900
H       -3.80097100      -4.82228200       1.22795600
C       -6.75661600      -3.78149300      -0.09913600
H       -6.99048600      -2.10845700      -1.44501500
H       -6.20615900      -5.38082000       1.24379900
H       -7.81532900      -4.02481400      -0.08616200
C        0.80891800      -4.55501200       0.13730500
H        0.95016300      -5.09438200      -0.80623600
H        1.77607400      -4.16001000       0.45590300
H        0.45861600      -5.27649200       0.88124000
C        1.92902400      -3.00285800      -2.47764400
H        2.30534500      -2.62276200      -3.43263500
H        2.33544600      -4.01125200      -2.34084400
H        0.84081900      -3.07117100      -2.52843200
