65
Properties=species:S:1:pos:R:3 pbc="F F F"
Si       0.07957200       0.98490900       0.80146400
O       -1.34813100       2.10280500       0.24477500
C       -1.49480000       3.34309500       0.41016700
C       -2.53212100       4.08388600      -0.25938800
H       -0.84471100       3.87246300       1.11282300
C       -3.42055200       3.47020400      -1.17077400
C       -2.64481300       5.46158300       0.02492500
C       -4.40388600       4.23342800      -1.78563400
H       -3.32176300       2.40981400      -1.37947000
C       -3.63352200       6.21843700      -0.59629400
H       -1.95370700       5.91980600       0.72764000
C       -4.51036500       5.60463400      -1.49962000
H       -5.09172100       3.77200700      -2.48779500
H       -3.72513700       7.27879100      -0.38230500
H       -5.28239000       6.19532500      -1.98504700
C        0.95544100       4.23670600      -1.32856300
C        1.14894300       2.98892400      -0.96659200
H        1.45633800       5.05662500      -0.81511500
H        0.30923300       4.48671000      -2.16888400
C        1.24794100       1.76197000      -0.54400100
H        2.00713300       1.12888600      -1.00313300
Cl      -1.42837900       0.03785500       2.18462900
Cl       0.81285200       2.30568500       2.44553200
O       -0.44706900      -0.17811400      -0.64566100
O        1.24381000      -0.40683400       1.34730000
C        0.16787500      -2.40953800      -0.25816800
C        1.58199600      -2.02297600      -0.33129600
C        3.35934300      -0.62210400       0.41655400
C       -2.12012700      -1.76906600      -0.38359400
C       -2.57271700      -3.08108000      -0.19782200
C       -0.22681100      -3.73340200      -0.11476000
C       -1.57778700      -4.06243400      -0.07597700
C        2.48766400      -2.70613300      -1.13299000
C        3.82489300      -2.32679700      -1.17026500
C        4.30392900      -1.25610600      -0.39901500
H        0.53517100      -4.49364600       0.00648600
H       -1.87583000      -5.09361700       0.07680700
H        2.12163900      -3.51464000      -1.75343900
H        4.51342900      -2.84827700      -1.82567700
N       -0.80074000      -1.44877400      -0.40522500
N        2.04973000      -0.99147000       0.44623100
C        5.71976900      -0.83918000      -0.42751500
C        6.72248700      -1.82338700      -0.50394500
C        6.08632800       0.51923900      -0.41680800
C        8.06587500      -1.45552600      -0.56141100
H        6.44910900      -2.87460700      -0.49418300
C        7.43116400       0.88074300      -0.48590600
H        5.32345100       1.28949500      -0.37901700
C        8.42330900      -0.10300400      -0.55415600
H        8.83244600      -2.22361500      -0.60651700
H        7.70362700       1.93212700      -0.48886000
H        9.47031900       0.18305400      -0.60036100
C       -4.01108000      -3.40957800      -0.14797100
C       -4.47195700      -4.58429000      -0.76998900
C       -4.92335600      -2.59276100       0.54533400
C       -5.82103300      -4.93069700      -0.70663800
H       -3.77630100      -5.21230500      -1.31913800
C       -6.26921600      -2.95088700       0.61476100
H       -4.57702700      -1.69662100       1.04936800
C       -6.72251300      -4.11581900      -0.01331100
H       -6.16841800      -5.83344400      -1.20077600
H       -6.96345200      -2.32085100       1.16328900
H       -7.77312800      -4.38765900       0.03755400
F       -2.93866800      -0.76673000      -0.61482300
F        3.67511300       0.34846400       1.24461600
