65
Properties=species:S:1:pos:R:3 pbc="F F F"
Si       0.08090000       1.04559200       0.60390100
O       -1.27109700       2.06786800      -0.24959700
C       -2.10077100       2.81482000       0.33459300
C       -3.00015900       3.67168000      -0.38523200
H       -2.15795700       2.79763700       1.42730800
C       -2.98304000       3.75741500      -1.79664900
C       -3.91602100       4.44203800       0.36475500
C       -3.87261500       4.60662700      -2.43895400
H       -2.27140800       3.16108200      -2.35827300
C       -4.80461500       5.28938500      -0.28894700
H       -3.91680700       4.36478300       1.44881200
C       -4.78083100       5.37113600      -1.68701900
H       -3.86762100       4.68297000      -3.52196200
H       -5.51128900       5.88505800       0.28028700
H       -5.47318100       6.03489200      -2.19757600
C        0.08104000       4.91052100       1.65161800
C        0.35611000       3.63718300       1.81788300
H       -0.84678400       5.34500100       2.02243800
H        0.78347500       5.57854600       1.15408700
C        0.58683000       2.35823500       1.91143200
H        1.09999000       1.96165100       2.78850900
Cl      -1.46743800       0.15727600       2.07342400
Cl       1.50168800       1.81640500      -0.97768000
O       -0.35900700      -0.22817300      -0.72032900
O        1.28253300      -0.22485200       1.30993700
C        0.32340700      -2.39419400      -0.12832900
C        1.72295300      -1.96214100      -0.21152900
C        3.42673400      -0.43636100       0.45274100
C       -1.98377000      -1.84687600      -0.35761600
C       -2.39628200      -3.15550300      -0.08070000
C       -0.03109700      -3.71472300       0.11443400
C       -1.37120600      -4.08605700       0.14791200
C        2.66507200      -2.66418100      -0.95180100
C        3.98488200      -2.22897700      -1.00368700
C        4.40745500      -1.08798000      -0.30500600
H        0.75276800      -4.43523700       0.31254300
H       -1.63945700      -5.11182700       0.37473900
H        2.34155000      -3.52990000      -1.51628600
H        4.70364900      -2.76423600      -1.61365900
N       -0.67486400      -1.48497600      -0.36770200
N        2.13591800      -0.85917800       0.49215400
C        5.80544800      -0.61556900      -0.34662300
C        6.84873700      -1.56002200      -0.34693200
C        6.11628100       0.75483400      -0.42220200
C        8.17665700      -1.14125600      -0.41451300
H        6.61899900      -2.61896500      -0.27033300
C        7.44627200       1.16647200      -0.50028100
H        5.32159200       1.49292600      -0.44495700
C        8.47869700       0.22256100      -0.49250000
H        8.97443100      -1.87823900      -0.40112600
H        7.67552700       2.22583400      -0.57029900
H        9.51375400       0.54817500      -0.54634800
C       -3.82190200      -3.53635900      -0.04874600
C       -4.21170900      -4.78044200      -0.57766500
C       -4.79152600      -2.70108000       0.53617500
C       -5.54703700      -5.17804900      -0.52913000
H       -3.47103100      -5.42374100      -1.04401600
C       -6.12380800      -3.10927400       0.59096300
H       -4.50053200      -1.75029400       0.97008000
C       -6.50589600      -4.34412100       0.05598500
H       -5.83918100      -6.13530600      -0.95111800
H       -6.86328000      -2.46362400       1.05582400
H       -7.54602200      -4.65533900       0.09495400
F       -2.82558700      -0.89489100      -0.69226800
F        3.69796800       0.58702300       1.23074300
