65
Properties=species:S:1:pos:R:3 pbc="F F F"
Si       0.14311600       1.05713800       1.01076300
O       -1.24768100       2.30629500       0.62322300
C       -1.93671800       2.42921500      -0.42358300
C       -2.82170800       3.54463300      -0.63223500
H       -1.89417600       1.65432200      -1.19223800
C       -2.93929700       4.59369400       0.30717400
C       -3.58949300       3.56122300      -1.81664800
C       -3.81535000       5.64068900       0.05505600
H       -2.34253300       4.56757800       1.21318900
C       -4.46595000       4.61385700      -2.05969600
H       -3.48770200       2.74817800      -2.53094300
C       -4.57721300       5.65115200      -1.12498300
H       -3.91316100       6.45229400       0.76967300
H       -5.05967000       4.63234200      -2.96837700
H       -5.26063000       6.47431100      -1.31455100
C        0.48528000       3.11891800      -2.40178200
C        0.96611000       2.53203200      -1.32922700
H        0.13680300       4.15055000      -2.36778000
H        0.44532100       2.60526600      -3.36160200
C        1.33695300       1.95649900      -0.22159500
H        2.37169700       2.05413500       0.10452400
Cl      -1.35158600       0.02600300       2.33636600
Cl       0.86718100       2.29627400       2.70742500
O       -0.40965500      -0.03027200      -0.50734900
O        1.32431000      -0.36329800       1.44372900
C        0.22497400      -2.26695300      -0.26026400
C        1.63150300      -1.85759900      -0.34978800
C        3.41755300      -0.49854700       0.44106200
C       -2.07074600      -1.64760400      -0.30634800
C       -2.50707700      -2.97170700      -0.18688700
C       -0.15317300      -3.60063000      -0.17962900
C       -1.49944400      -3.94678800      -0.13335800
C        2.51659000      -2.47831800      -1.22134600
C        3.85072600      -2.08904200      -1.26865000
C        4.34451700      -1.07247300      -0.43699200
H        0.61976100      -4.35667200      -0.11594400
H       -1.78402600      -4.98789900      -0.03096100
H        2.13669800      -3.24650600      -1.88353600
H        4.52451200      -2.56205200      -1.97412600
N       -0.75556800      -1.31045900      -0.33377400
N        2.11126900      -0.87482800       0.48133000
C        5.76245300      -0.66013500      -0.46023000
C        6.75764400      -1.64477900      -0.60304500
C        6.13912800       0.69279000      -0.37720500
C        8.10291200      -1.28299500      -0.65595100
H        6.47716900      -2.69325700      -0.64779100
C        7.48564300       1.04902900      -0.44240000
H        5.38408900       1.46616700      -0.28815300
C        8.47003900       0.06456900      -0.57768100
H        8.86332900      -2.05240900      -0.75281700
H        7.76535300       2.09718100      -0.38967200
H        9.51841000       0.34613300      -0.62039100
C       -3.94094700      -3.31961100      -0.13654600
C       -4.39509500      -4.46533200      -0.81529200
C       -4.85451300      -2.55212200       0.60941100
C       -5.73912700      -4.83112400      -0.75577200
H       -3.69864200      -5.05503100      -1.40447500
C       -6.19520200      -2.93004600       0.67427600
H       -4.51315000      -1.68003400       1.15718300
C       -6.64193900      -4.06536300      -0.01021000
H       -6.08162300      -5.71060100      -1.29336200
H       -6.89033000      -2.33900000       1.26349100
H       -7.68858600      -4.35255200       0.03751400
F       -2.90477400      -0.64087500      -0.46661000
F        3.75838100       0.40769100       1.33199600
