65
Properties=species:S:1:pos:R:3 pbc="F F F"
Si      -0.46118900       1.49932400       1.10586200
O        1.10876600       1.39458200      -0.00054400
C        2.08733300       2.18344900      -0.07662700
C        3.11159000       2.00716000      -1.07455900
H        2.21271300       2.96218400       0.68065500
C        2.99488300       1.02706300      -2.08595500
C        4.27921900       2.79270500      -0.97698400
C        4.04078300       0.83572500      -2.97736000
H        2.08759400       0.43550700      -2.15208900
C        5.32653300       2.58742000      -1.87076900
H        4.35470300       3.54453100      -0.19578100
C        5.20710500       1.61024300      -2.86661600
H        3.96213400       0.08427500      -3.75700200
H        6.23189600       3.18156100      -1.79589100
H        6.02559200       1.44920600      -3.56260700
C        0.61392700       4.59607400      -1.20770500
C       -0.22002500       3.92955800      -0.43816900
H        1.31382800       5.31785800      -0.78815200
H        0.60650200       4.47337700      -2.29009500
C       -0.96783800       3.19921900       0.33579700
H       -1.96973800       3.53757900       0.60069600
Cl       0.67624300       2.34987100       2.82431900
Cl      -2.31645000       1.20528200       2.29734700
O       -1.21463200       0.63513200      -0.47645000
O        0.02520300      -0.26650000       1.66292700
C       -1.54858000      -1.63647200      -0.10585600
C       -0.08909800      -1.81959900      -0.06577200
C        2.01799900      -1.28378800       0.93777100
C       -3.40184700      -0.18682000      -0.55179300
C       -4.30743300      -1.25726500      -0.44202200
C       -2.41430300      -2.71351600       0.01171500
C       -3.78223200      -2.51971700      -0.13567900
C        0.53663000      -2.75486300      -0.87809300
C        1.91523000      -2.91094900      -0.82082800
C        2.69431800      -2.16586200       0.07535300
H       -2.00401800      -3.69387300       0.22130500
H       -4.46269000      -3.35856900      -0.03911200
H       -0.06488900      -3.32230000      -1.57745800
H        2.41082000      -3.60577500      -1.48978200
C        4.16485100      -2.34057100       0.08838300
Cl       2.79802400      -0.45488000       2.21302500
N       -2.05819700      -0.39045400      -0.35888600
N        0.66235200      -1.09957800       0.82288400
Cl      -3.88402500       1.41212100      -0.92060600
C       -5.77234500      -1.09915800      -0.60722600
C       -6.62091900      -1.55583600       0.41507600
C       -6.32758800      -0.55709800      -1.77744900
C       -8.55436100      -0.91457200      -0.89256800
C       -7.71284500      -0.47229000      -1.91911800
C       -8.00594800      -1.45482400       0.27465700
H       -6.19337800      -1.96910800       1.32441600
H       -8.65403600      -1.79605800       1.07685400
H       -9.63256300      -0.83935600      -1.00304800
H       -8.13473400      -0.06200800      -2.83220500
H       -5.67864700      -0.21997700      -2.57908200
C        4.70155600      -3.63816500       0.13635400
C        5.03022600      -1.23888300      -0.02136000
C        6.93950600      -2.72918600      -0.01810900
C        6.40906700      -1.43603300      -0.08118700
C        6.08323000      -3.82927500       0.09276700
H        4.03587000      -4.49202100       0.22598100
H        6.48900900      -4.83543100       0.14581800
H        8.01487200      -2.87861000      -0.05741700
H        7.06820900      -0.57849600      -0.18157500
H        4.62761400      -0.23445900      -0.08781100
