65
Properties=species:S:1:pos:R:3 pbc="F F F"
Si       0.14665300       1.08662900       1.01473700
O       -1.21054400       2.37893500       0.67360200
C       -1.82247400       2.61305700      -0.40301300
C       -2.69575800       3.74689400      -0.55797900
H       -1.72633100       1.92072500      -1.24026200
C       -2.89251500       4.68963500       0.47566900
C       -3.37117600       3.88933500      -1.78910000
C       -3.75462900       5.75842000       0.26908500
H       -2.36751700       4.56592700       1.41737100
C       -4.23383400       4.96242300      -1.98640200
H       -3.20715300       3.15686800      -2.57521000
C       -4.42347500       5.89500800      -0.95836900
H       -3.91341000       6.48941700       1.05605900
H       -4.75611800       5.07794300      -2.93110000
H       -5.09598400       6.73455100      -1.11177000
C        0.55709000       3.37979400      -2.28268900
C        0.99283800       2.63548800      -1.29101000
H        0.38395300       2.96196000      -3.27373700
H        0.37430500       4.44500500      -2.14631600
C        1.34307400       1.91680200      -0.26377700
H        2.40589700       1.83877800      -0.03714200
Cl      -1.31836500       0.09642200       2.38053900
Cl       0.95347700       2.32556000       2.67476100
O       -0.52058500       0.01537000      -0.50509400
O        1.29197300      -0.37940600       1.41705400
C        0.10566500      -2.20051700      -0.25735300
C        1.51510500      -1.79937100      -0.41394400
C        3.41054500      -0.60173700       0.43066500
C       -2.21144000      -1.61302300      -0.34581800
C       -2.59362600      -2.95952100      -0.20478000
C       -0.23585500      -3.53589700      -0.10611700
C       -1.57321400      -3.90819700      -0.06265000
C        2.32452200      -2.40655900      -1.36323000
C        3.67055000      -2.07345500      -1.44455400
C        4.24900900      -1.16059500      -0.55214200
H        0.55530300      -4.27092100      -0.02223600
H       -1.84336900      -4.95142900       0.05693700
H        1.88014600      -3.11870400      -2.04752900
H        4.29440400      -2.51940900      -2.21127100
C        5.69202000      -0.84639900      -0.65864100
Cl       3.99207600       0.38168700       1.70405300
N       -0.88598100      -1.25899500      -0.34863400
N        2.06884200      -0.89159900       0.44991100
Cl      -3.35218400      -0.34740700      -0.51974100
C       -4.00726700      -3.40643400      -0.17924100
C       -4.44453100      -4.20233700       0.89286500
C       -4.89380400      -3.10814200      -1.22683900
C       -6.63646900      -4.37510700      -0.11918200
C       -6.20015100      -3.59659100      -1.19668700
C       -5.75694000      -4.67604600       0.92532200
H       -3.76121400      -4.43200500       1.70578000
H       -6.09071200      -5.27806600       1.76558600
H       -7.65685100      -4.74740500      -0.09556700
H       -6.87636100      -3.37126100      -2.01645300
H       -4.55680900      -2.51337100      -2.06965200
C        6.61457500      -1.90141800      -0.76281500
C        6.14957100       0.48053900      -0.72256800
C        8.42597800      -0.30984500      -0.97057800
C        7.50959300       0.74388900      -0.88386700
C        7.97593800      -1.63239900      -0.90896400
H        6.26488300      -2.92865400      -0.71068700
H        8.68287500      -2.45460500      -0.97321600
H        9.48557600      -0.10075400      -1.08798300
H        7.85297900       1.77263000      -0.94419100
H        5.44303300       1.30232100      -0.66834300
