65
Properties=species:S:1:pos:R:3 pbc="F F F"
Si       0.09380200       1.01662300       0.85724400
O       -1.30589400       2.18525100       0.30426500
C       -1.43632400       3.42081000       0.50612000
C       -2.41855200       4.21014100      -0.19166400
H       -0.81195600       3.91075100       1.25920800
C       -3.23900000       3.66092800      -1.20189100
C       -2.54361400       5.56997700       0.16366500
C       -4.17064200       4.46750300      -1.84128100
H       -3.12351100       2.61598400      -1.46918600
C       -3.48221100       6.37052600      -0.48051900
H       -1.90316000       5.98036500       0.93999400
C       -4.29314700       5.81965300      -1.48065600
H       -4.80451800       4.05537700      -2.62067700
H       -3.58465300       7.41704300      -0.21056300
H       -5.02456700       6.44523800      -1.98484000
C        1.12224400       4.28266200      -1.15064700
C        1.23530100       3.00486000      -0.86939900
H        1.71598200       5.03014800      -0.62572500
H        0.45098700       4.62994000      -1.93482400
C        1.25155100       1.75210000      -0.51818000
H        1.92014900       1.07411500      -1.04799500
Cl      -1.40374500       0.10067100       2.25276900
Cl       0.86332400       2.33343100       2.48964200
O       -0.49926900      -0.14073700      -0.59531000
O        1.24962400      -0.39214700       1.38467100
C        0.04874600      -2.34955600      -0.12760100
C        1.47336600      -2.00583800      -0.27726300
C        3.35927700      -0.68862200       0.40222300
C       -2.23951700      -1.70185400      -0.40326200
C       -2.67610200      -3.01644000      -0.15590800
C       -0.34802100      -3.65173800       0.13530500
C       -1.69924200      -3.97529100       0.14120400
C        2.29038600      -2.73138300      -1.13222900
C        3.63703200      -2.40903300      -1.24670500
C        4.20357000      -1.37156100      -0.49380700
H        0.41035000      -4.39987100       0.33143800
H       -2.01248300      -4.99261700       0.34800300
H        1.85043500      -3.52285900      -1.72681400
H        4.26738400      -2.95165700      -1.94245800
C        5.64130700      -1.05337300      -0.65105200
Cl       3.92193200       0.49290200       1.49981200
N       -0.90476100      -1.39269800      -0.35831900
N        2.02352800      -0.99994000       0.47291900
Cl      -3.31158400      -0.41724300      -0.75878900
C       -4.10396200      -3.41426000      -0.17307900
C       -4.63512500      -4.07869000       0.94496700
C       -4.91504100      -3.19621200      -1.29865400
C       -6.76905300      -4.28217100      -0.17922600
C       -6.23926900      -3.63499100      -1.30082900
C       -5.96502700      -4.50220800       0.94338300
H       -4.01069800      -4.24438200       1.81839400
H       -6.37120700      -5.00196100       1.81817000
H       -7.80311500      -4.61548300      -0.18168800
H       -6.85647400      -3.47355800      -2.18007900
H       -4.50616900      -2.70330900      -2.17484100
C        6.58190900      -2.09527500      -0.58703500
C        6.07488900       0.25422200      -0.92746400
C        8.36447600      -0.52676900      -1.05588100
C        7.42987600       0.51148000      -1.13486400
C        7.93816800      -1.82972700      -0.78009200
H        6.25045900      -3.10625900      -0.36722600
H        8.65957000      -2.63910000      -0.71392700
H        9.41995300      -0.32095400      -1.21044100
H        7.75519000       1.52297100      -1.36058500
H        5.35350000       1.06169900      -1.00040800
