71
Properties=species:S:1:pos:R:3 pbc="F F F"
Si      -0.04850300       1.19203700       0.69910600
O       -1.48180200       2.21318600       0.01740400
C       -1.46449500       3.38442300      -0.45027400
C       -2.67644300       4.12589500      -0.68140800
H       -0.51155500       3.83372000      -0.74223000
C       -3.94348600       3.61316300      -0.32351500
C       -2.56870800       5.39421000      -1.29122600
C       -5.08183500       4.36629400      -0.57724900
H       -4.00907400       2.63987300       0.15171300
C       -3.71545800       6.14031300      -1.54420300
H       -1.58704100       5.77822200      -1.55639000
C       -4.96873400       5.62658500      -1.18710800
H       -6.06026000       3.98294400      -0.30381600
H       -3.63970100       7.11616300      -2.01382600
H       -5.86417600       6.21023500      -1.38244300
C       -0.46740400       4.94312700       2.01271600
C        0.03054600       3.72629100       2.05772300
H        0.03861800       5.74192300       1.47125300
H       -1.38873500       5.19633700       2.53617400
C        0.46313300       2.50086100       2.01776000
H        1.15221200       2.13752000       2.78039400
Cl      -1.55105000       0.24712500       2.12627300
Cl       1.40274100       2.00604000      -0.87596800
O       -0.47117600      -0.02610000      -0.69524800
O        1.18547800      -0.07142400       1.38125800
C        0.18694500      -2.14749600      -0.01289200
C        1.58213500      -1.70133700      -0.22298600
C        3.35183600      -0.26137400       0.52700800
C       -2.12700500      -1.66209300      -0.44125500
C       -2.49809900      -2.95608500      -0.03197300
C       -0.13557400      -3.42022700       0.45106400
C       -1.48656700      -3.78768400       0.44934100
C        2.43799100      -2.32965400      -1.12699900
C        3.76020300      -1.87737900      -1.18874600
C        4.25289300      -0.85745000      -0.37188400
H       -1.76014200      -4.77492300       0.80846500
H        4.43445200      -2.32893800      -1.90925300
C        5.67247900      -0.44806000      -0.48323700
Cl       3.81206500       0.91777300       1.68025900
N       -0.81825200      -1.28623800      -0.37689100
N        2.04913500      -0.66794900       0.54680600
Cl      -3.24679400      -0.49402300      -0.99672000
C       -3.90055100      -3.43664500      -0.04132000
C       -4.44176100      -3.96911900       1.14043300
C       -4.67628000      -3.41915700      -1.21157500
C       -6.51561700      -4.44485300      -0.01377500
C       -5.97559000      -3.92735400      -1.19618300
C       -5.74688100      -4.46357300       1.15414000
H       -3.84478900      -3.97641700       2.04808500
H       -6.16216800      -4.86034500       2.07617700
H       -7.53043800      -4.83272100      -0.00348600
H       -6.56508600      -3.92084300      -2.10862200
H       -4.25826900      -3.02624000      -2.13275700
C        6.67479400      -1.43058700      -0.42788000
C        6.02854600       0.89265600      -0.70319600
C        8.36629400       0.26270100      -0.78863800
C        7.36979100       1.24236100      -0.86009700
C        8.01644200      -1.07368000      -0.57189000
H        6.40152500      -2.46782700      -0.25466900
H        8.78607600      -1.83809400      -0.51359300
H        9.41053500       0.53970700      -0.90383600
H        7.63597700       2.27986100      -1.04116000
H        5.25692500       1.65294100      -0.77002000
C        0.90040200      -4.39259300       0.94643200
H        1.01531800      -5.21813200       0.23474100
H        1.87378500      -3.92216100       1.09742900
H        0.56562200      -4.82169800       1.89639800
C        1.97923100      -3.44092200      -2.03251200
H        2.51188400      -3.38023800      -2.98577100
H        2.20981700      -4.41424300      -1.58386300
H        0.90418200      -3.39802700      -2.22220300
