71
Properties=species:S:1:pos:R:3 pbc="F F F"
Si      -0.02207000      -1.30894300      -0.60205900
O       -1.37709200      -2.33151100       0.25361100
C       -2.15815500      -3.16638100      -0.27383600
C       -3.25846700      -3.74962000       0.44837500
H       -1.97472500      -3.49765300      -1.30054900
C       -3.54465800      -3.39905600       1.78678400
C       -4.05433800      -4.70212700      -0.22298600
C       -4.61763700      -3.99595200       2.43484200
H       -2.91962900      -2.66986300       2.29168500
C       -5.12747500      -5.29537200       0.43477000
H       -3.82206000      -4.96281500      -1.25223600
C       -5.40782000      -4.94154000       1.76047300
H       -4.84563300      -3.73540600       3.46399800
H       -5.74348700      -6.02892700      -0.07602500
H       -6.24519700      -5.40492700       2.27496000
C       -3.81480700      -1.16178900      -1.99886700
C       -2.56265100      -0.77148400      -1.91936200
H       -4.11440600      -1.95686400      -2.68050000
H       -4.59525200      -0.69571400      -1.39919500
C       -1.30724800      -0.45395900      -1.78845600
H       -0.90223300       0.33217600      -2.42795400
Cl       1.37888800      -2.21851500       0.88333200
Cl       0.48803500      -2.86476000      -2.13773700
O        1.27995300      -0.10761700      -1.31148300
O       -0.31476300      -0.03874200       0.83939500
C        1.78499000       1.49910600       0.28842200
C        0.41586900       2.02544800       0.09002900
C       -1.92172900       1.62716800       0.46569700
C        3.47898700       0.00182100      -0.52493200
C        4.43015000       0.57371100       0.33999200
C        2.67666300       2.06128400       1.19894500
C        3.98622500       1.56953200       1.21158100
C        0.15436700       3.31210400      -0.37461500
C       -1.18467900       3.71665500      -0.43844000
C       -2.24212200       2.90819600      -0.01823600
H        4.69975000       1.99809100       1.90824700
H       -1.41665800       4.69968900      -0.83550200
C       -3.63278200       3.41133700      -0.10371400
Cl      -3.07182700       0.56725500       1.16514700
N        2.19078800       0.45478100      -0.50516000
N       -0.62385500       1.20789600       0.45602400
Cl       3.83492200      -1.27257800      -1.60681000
C        5.84820900       0.14363000       0.38399800
C        6.41717000      -0.20152600       1.62102900
C        6.64636700       0.13093000      -0.77140600
C        8.55174700      -0.58103200       0.54477000
C        7.99275300      -0.22438900      -0.68722900
C        7.76118200      -0.56973000       1.69811500
H        5.80000500      -0.19888200       2.51506500
H        8.18826800      -0.84938200       2.65700400
H        9.59860100      -0.86539600       0.60508100
H        8.60553700      -0.22097000      -1.58421900
H        6.21871700       0.41404800      -1.72780300
C       -3.94717800       4.66392800       0.44766200
C       -4.62436400       2.68432900      -0.78251200
C       -6.22723100       4.44457300      -0.33521600
C       -5.91364000       3.20355600      -0.90060800
C       -5.24224400       5.17338300       0.33847000
H       -3.18131400       5.22743400       0.97338000
H       -5.48042600       6.13734400       0.77902800
H       -7.23403900       4.84331600      -0.42313900
H       -6.67191300       2.64119600      -1.43812400
H       -4.37849000       1.72966000      -1.23623500
C        2.27672200       3.16837100       2.13664500
H        2.56628600       4.14041100       1.72074400
H        1.20009900       3.18018200       2.32146500
H        2.79962600       3.04689800       3.08973100
C        1.24222000       4.24703200      -0.82892700
H        0.93232500       4.74682400      -1.75188800
H        1.40886500       5.02375600      -0.07324100
H        2.18634700       3.72851300      -1.00758600
