71
Properties=species:S:1:pos:R:3 pbc="F F F"
Si      -0.42764800      -1.76947400      -0.91811600
O        1.11596200      -1.59285100       0.25006000
C        1.87365600      -2.51145200       0.65775300
C        3.06616300      -2.24162100       1.42061800
H        1.59579700      -3.55386800       0.48082100
C        3.40712900      -0.93559600       1.83361100
C        3.88769100      -3.33286700       1.77509500
C        4.56101900      -0.72753700       2.57606000
H        2.75621700      -0.10845500       1.57579000
C        5.04667100      -3.11560000       2.51371900
H        3.61104600      -4.33504200       1.45904800
C        5.38290500      -1.81512300       2.91149200
H        4.82879800       0.27484800       2.89529400
H        5.68649700      -3.95020300       2.78290400
H        6.28647000      -1.64660700       3.49076500
C        3.10245000      -3.38559500      -2.03516200
C        1.85195500      -3.01916900      -2.21320900
H        3.35423800      -4.37466500      -1.65427800
H        3.92690400      -2.72061500      -2.29004800
C        0.61812700      -2.61937800      -2.30895700
H        0.07799000      -2.77921800      -3.24285800
Cl      -2.25440100      -1.56395700      -2.17903900
Cl      -1.05050100      -3.67589900       0.06281800
O       -1.18522100      -0.84473800       0.57077900
O        0.07431600      -0.00772400      -1.60875200
C       -1.53313600       1.38868800       0.02178900
C       -0.06749300       1.56796700       0.08606000
C        2.03210400       1.10784900      -0.98115500
C       -3.38612000      -0.04970900       0.53785700
C       -4.29463700       0.99227700       0.27597900
C       -2.39562900       2.43433900      -0.30155900
C       -3.76966400       2.20067200      -0.18308300
C        0.54217400       2.46314200       0.96484500
C        1.92040000       2.65999400       0.83673800
C        2.69095300       2.02301000      -0.14069900
H       -4.46028400       3.00158700      -0.42729400
H        2.41946500       3.33565200       1.52366400
C        4.13486600       2.34427700      -0.24671100
Cl       2.80143200       0.28366700      -2.26827600
N       -2.04767300       0.16324300       0.36366600
N        0.69335000       0.87805800      -0.82249600
Cl      -3.86975000      -1.60799900       1.04248900
C       -5.76236600       0.84523800       0.42423700
C       -6.59126200       1.18692300      -0.65701600
C       -6.34016900       0.43299600       1.63585500
C       -8.54965500       0.68907100       0.67544300
C       -7.72799300       0.36199900       1.75957600
C       -7.97880600       1.10054200      -0.53286000
H       -6.14512900       1.50170700      -1.59629300
H       -8.61150000       1.35238100      -1.37921100
H       -9.62981500       0.62457800       0.77292100
H       -8.16739700       0.05271100       2.70371100
H       -5.70727000       0.18653300       2.48226400
C        4.52228400       3.69594600      -0.25560000
C        5.12392400       1.34716600      -0.27246700
C        6.85196200       3.04444200      -0.32514300
C        6.47349300       1.69814800      -0.30478100
C        5.87293200       4.04253200      -0.30240900
H        3.76258600       4.47254200      -0.24321200
H        6.15891100       5.09027100      -0.32237200
H        7.90394500       3.31396200      -0.35718200
H        7.22930500       0.91790800      -0.30977300
H        4.84465000       0.30088600      -0.23711300
C       -0.22380500       3.19496700       2.03385400
H       -0.38066600       4.23920000       1.73984300
H       -1.19689200       2.74001900       2.22910900
H        0.35801800       3.19775700       2.96072900
C       -1.90189400       3.78199300      -0.75503300
H       -2.56496500       4.16753100      -1.53534600
H       -1.92359000       4.49352900       0.07853400
H       -0.88308100       3.73910100      -1.14599200
