71
Properties=species:S:1:pos:R:3 pbc="F F F"
Si       0.48237900      -1.42701800       1.22542100
O       -1.22558700      -1.49503300       0.28648100
C       -1.49590900      -1.51640600      -0.94250300
C       -2.82126100      -1.83034500      -1.41586700
H       -0.73861500      -1.22092500      -1.67401400
C       -3.82806000      -2.29119100      -0.53860600
C       -3.10826000      -1.62504500      -2.78129200
C       -5.10487600      -2.53183100      -1.02723200
H       -3.58782800      -2.45589400       0.50667200
C       -4.39420400      -1.85835900      -3.26032900
H       -2.32229700      -1.27850100      -3.44769900
C       -5.38940300      -2.31017200      -2.38462100
H       -5.88438100      -2.88848000      -0.36097900
H       -4.62444700      -1.69407500      -4.30841900
H       -6.39196600      -2.49526500      -2.76006900
C       -0.07586300      -4.13058800      -1.65925000
C        0.47011300      -3.70580600      -0.53934400
H        0.40229600      -3.96132600      -2.62354000
H       -1.00422900      -4.70052600      -1.65245900
C        0.92559700      -3.19021300       0.56327200
H        1.61133800      -3.75202300       1.19782300
Cl      -0.60845500      -2.21822000       3.01810100
Cl       2.39065700      -1.13499300       2.35233000
O        1.15744400      -0.64444300      -0.38364000
O        0.00777600       0.32105700       1.74008500
C        1.52406800       1.63783400      -0.13306400
C        0.07199600       1.83361000      -0.03068800
C       -2.00815100       1.29940400       1.06830000
C        3.34439500       0.11709800      -0.56881800
C        4.25521400       1.19261000      -0.50793900
C        2.40218300       2.71291000      -0.12920900
C        3.76234200       2.48709000      -0.29550700
C       -0.57725600       2.75850600      -0.83726400
C       -1.95312300       2.91407700      -0.73602200
C       -2.69165700       2.17222000       0.19428100
H        2.00982900       3.70837100       0.04088100
H        4.45817800       3.31749900      -0.24488600
H        0.00145600       3.31053400      -1.56797800
H       -2.47034200       3.59778500      -1.40048300
C       -4.16571000       2.31468000       0.23066400
C       -2.63429100       0.59403900       2.22389600
N        2.02353200       0.38197300      -0.33568800
N       -0.66032800       1.13559400       0.89021800
C        3.69644500      -1.28426800      -0.94685900
C        5.71361300       0.98217400      -0.65526600
C        6.37955300       0.00429500       0.10346600
C        6.45584000       1.80251500      -1.52190500
C        8.49241100       0.65987600      -0.88225300
C        7.83648900       1.63603900      -1.63943000
C        7.76157100      -0.15117200      -0.00735000
H        5.81575000      -0.61693000       0.79273700
H        8.26738100      -0.90272300       0.59220700
H        9.56776400       0.53319300      -0.97159000
H        8.39872800       2.26680700      -2.32226700
H        5.94632300       2.55674800      -2.11557400
C       -4.74953700       3.59244300       0.25051900
C       -4.99439100       1.18162900       0.17424700
C       -6.95695400       2.59865400       0.17359100
C       -6.38115600       1.32404100       0.14002500
C       -6.13821000       3.73154400       0.23070200
H       -4.11421100       4.47254900       0.29923700
H       -6.58005800       4.72350000       0.26095000
H       -8.03760000       2.70893100       0.15327900
H       -7.00986100       0.43985900       0.08183900
H       -4.55366700       0.19160100       0.12928600
H        2.96042700      -1.67065500      -1.65762000
H        4.69402100      -1.30767100      -1.38463500
H        3.66972300      -1.93785500      -0.06948800
H       -2.70029600      -0.48214000       2.03933000
H       -2.00487700       0.71640400       3.11019700
H       -3.63013000       0.99712900       2.40485600
