71
Properties=species:S:1:pos:R:3 pbc="F F F"
Si      -0.55099400       1.53855700       0.85520500
O        1.05605400       1.44780900      -0.27412800
C        1.70444100       2.38898400      -0.79927800
C        3.02669500       2.21394800      -1.35040700
H        1.24032800       3.37625300      -0.88102400
C        3.70099600       0.97453200      -1.31683500
C        3.64922000       3.34009300      -1.92926800
C        4.98147700       0.87161400      -1.84251800
H        3.21088800       0.11311400      -0.88018400
C        4.93174300       3.22923300      -2.45870800
H        3.12147400       4.29018300      -1.94933000
C        5.59730000       1.99796500      -2.41185100
H        5.50564600      -0.07838000      -1.80993700
H        5.41539600       4.09405300      -2.90225500
H        6.60034100       1.91261400      -2.82065200
C        2.58754500       3.84724800       1.77457600
C        1.52443000       3.13450400       2.07478100
H        2.51332400       4.91328800       1.56314100
H        3.57964300       3.39750700       1.75618000
C        0.47450500       2.39084000       2.26280300
H        0.10132700       2.21719100       3.27233500
Cl      -2.38118400       1.31264500       2.12685900
Cl      -1.23376700       3.44347000      -0.11649500
O       -1.24705300       0.62145200      -0.61574600
O       -0.00538800      -0.18371900       1.53419300
C       -1.60085300      -1.63313800      -0.17524500
C       -0.14533800      -1.82652400      -0.10974700
C        1.95514100      -1.30024800       0.94882000
C       -3.45001800      -0.15066200      -0.62376300
C       -4.35047100      -1.22291700      -0.44222100
C       -2.47063400      -2.70907000      -0.06566700
C       -3.83906500      -2.49918400      -0.17639300
C        0.47027900      -2.80924800      -0.87395000
C        1.83078100      -3.03945800      -0.73361200
C        2.58896600      -2.30647400       0.18978000
H       -2.06328700      -3.69072700       0.14364500
H       -4.52552700      -3.32765900      -0.03942400
H       -0.13108300      -3.38125400      -1.57011000
H        2.31355900      -3.80852300      -1.32644000
C        4.03737800      -2.59691400       0.31898100
C        2.64127400      -0.42226900       1.94218900
N       -2.11877400      -0.39541700      -0.43324600
N        0.61302900      -1.09503600       0.76224000
C       -3.83814500       1.21343400      -1.08774500
C       -5.81578600      -1.02464300      -0.51913700
C       -6.43805200       0.00958400       0.20132900
C       -6.60663500      -1.91020900      -1.27101600
C       -8.60474000      -0.72045800      -0.59617400
C       -7.99268600      -1.75305100      -1.31447800
C       -7.82480600       0.15642200       0.16534300
H       -5.83587100       0.68250500       0.80383200
H       -8.29575800       0.95268800       0.73479000
H       -9.68414800      -0.60085300      -0.62815000
H       -8.59359100      -2.43468800      -1.90987400
H       -6.13165500      -2.70876400      -1.83443200
C        4.63649700      -2.81934500       1.57001200
C        4.82322100      -2.69677700      -0.84264100
C        6.77426100      -3.20347000       0.49739800
C        6.18457100      -2.98948300      -0.75247200
C        5.99530100      -3.12449400       1.65657400
H        4.03541800      -2.76994200       2.47216100
H        6.44441400      -3.30325900       2.62936000
H        7.83351400      -3.43422200       0.56765000
H        6.78304200      -3.04913400      -1.65718300
H        4.36799800      -2.52728400      -1.81452500
H       -3.12423600       1.56658000      -1.83639000
H       -4.84548000       1.18432500      -1.50281900
H       -3.80658900       1.92720200      -0.25917600
H        2.27569500       0.60155200       1.86822200
H        2.42270900      -0.76807500       2.96062700
H        3.71912600      -0.45338700       1.78663100
