71
Properties=species:S:1:pos:R:3 pbc="F F F"
Si       0.21628600       1.17023200       0.63142200
O       -0.93730600       2.40619700      -0.19175800
C       -1.58283900       3.33950400       0.35951600
C       -2.56380700       4.11343200      -0.35008500
H       -1.36401300       3.60165100       1.39850900
C       -2.87587100       3.86665300      -1.70624800
C       -3.22013100       5.14597000       0.35501700
C       -3.83823000       4.64233000      -2.33727200
H       -2.35903000       3.07449100      -2.23697900
C       -4.18481000       5.91636400      -0.28560800
H       -2.96575000       5.32636000       1.39618900
C       -4.49333800       5.66294800      -1.62829200
H       -4.08564300       4.46192100      -3.37892900
H       -4.69533700       6.70997600       0.25100600
H       -5.24697300       6.26472900      -2.12876200
C       -3.50465000       1.62151600       2.12661300
C       -2.33766600       1.03155600       2.00558100
H       -3.64432500       2.44771800       2.82266900
H       -4.36845500       1.29266300       1.55250200
C       -1.15344000       0.51608300       1.83951100
H       -0.86285800      -0.33268300       2.46050100
Cl       1.67609100       1.74138200      -0.94187200
Cl       1.04200800       2.60828000       2.11178800
O        1.33549700      -0.23542700       1.30461000
O       -0.39998100      -0.12843300      -0.79148700
C        1.54023500      -1.90946000      -0.26207300
C        0.11674000      -2.23511400      -0.03949600
C       -2.17523800      -1.63962500      -0.36745800
C        3.47515900      -0.69157400       0.44153100
C        4.24707600      -1.30602100      -0.56192400
C        2.30874300      -2.63941000      -1.16027700
C        3.64040600      -2.30546700      -1.34215200
C       -0.25073700      -3.48452900       0.43287900
C       -1.59538200      -3.81120500       0.51962900
C       -2.57577900      -2.91513400       0.07364800
H        1.83214100      -3.41872600      -1.74328000
H        4.22944500      -2.80190900      -2.10520300
H        0.52338600      -4.18657600       0.71986400
H       -1.90133800      -4.78368100       0.88856600
C       -3.98544300      -3.39747400       0.09187400
C       -3.22007000      -0.66080000      -0.95010100
N        2.12740300      -0.93770300       0.48775200
N       -0.83877500      -1.32181600      -0.39271400
C        4.09516900       0.14199100       1.58923300
C        5.63608600      -0.90891300      -0.87746900
F        3.47918300      -0.09382100       2.76568400
F        4.06578200       1.46350800       1.34242800
F        5.38769900      -0.21961800       1.76859300
F       -4.35034500      -0.68815900      -0.20757100
F       -3.53245100      -1.07774900      -2.20922400
F       -2.84929600       0.61736200      -1.03916500
C        5.94480200       0.44503500      -1.09135100
C        6.63183900      -1.88523600      -1.04448300
C        8.23140400      -0.15781800      -1.60881300
C        7.92654500      -1.50740000      -1.39941900
C        7.23750600       0.81523000      -1.46005700
H        5.16961200       1.19757500      -0.98876500
H        7.46692700       1.86242500      -1.63468600
H        9.23931800       0.13371400      -1.89056300
H        8.69687000      -2.26488300      -1.51169800
H        6.39544600      -2.93171600      -0.87358000
C       -4.66309300      -3.68966900      -1.09937400
C       -4.60337100      -3.64286900       1.32689400
C       -6.58208600      -4.43595700       0.17818700
C       -5.90245400      -4.15229600       1.36723700
C       -5.95782500      -4.21040600      -1.05235000
H       -4.17693500      -3.52359400      -2.05433200
H       -6.47592000      -4.44240900      -1.97857900
H       -7.59157700      -4.83613500       0.21077200
H       -6.38120600      -4.32779600       2.32643400
H       -4.07339500      -3.41974800       2.24866300
