71
Properties=species:S:1:pos:R:3 pbc="F F F"
Si      -0.44412600       1.12554900       1.40848200
O        1.21019800       1.42264200       0.48052600
C        1.45858600       1.68094400      -0.72945800
C        2.75083800       2.15973100      -1.14609800
H        0.71179900       1.46440000      -1.49785000
C        3.73450800       2.55145700      -0.21012400
C        3.03204300       2.18808700      -2.52845600
C        4.98403600       2.95361900      -0.66119500
H        3.49921300       2.53325800       0.84845800
C        4.29216300       2.58025000      -2.96977000
H        2.26284200       1.89444300      -3.23832100
C        5.26508300       2.96119300      -2.03722700
H        5.74616300       3.25885800       0.04918400
H        4.51917900       2.59438800      -4.03118900
H        6.24776100       3.27060800      -2.38218500
C       -0.08084700       4.30190000      -0.96251100
C       -0.58386800       3.66232400       0.07159500
H       -0.56554500       4.26321000      -1.93762200
H        0.80956700       4.92167600      -0.86574400
C       -1.00459600       2.93639600       1.06293000
H       -1.73156400       3.32784600       1.77427500
Cl       0.58533000       1.58406400       3.29971800
Cl      -2.32042800       0.45839100       2.40012000
O       -1.12715500       0.60407900      -0.37535700
O        0.14049400      -0.71176700       1.55283700
C       -1.39909000      -1.68597100      -0.47915300
C        0.06742900      -1.82710600      -0.46986100
C        2.16303400      -1.52219900       0.64607700
C       -3.28130500      -0.22598400      -0.71043600
C       -4.16414400      -1.31805300      -0.64684300
C       -2.23609400      -2.79393500      -0.56553300
C       -3.60748300      -2.60968500      -0.59708300
C        0.70698000      -2.50043100      -1.50588100
C        2.08743100      -2.57771200      -1.52168500
C        2.84916200      -2.06001800      -0.45952800
H       -1.79834100      -3.78493300      -0.54522600
H       -4.27248700      -3.46544500      -0.56461000
H        0.10954600      -2.89575300      -2.31865100
H        2.60078000      -3.01903400      -2.36874600
C        4.32289100      -2.06579100      -0.59276700
C        2.86030100      -1.24206800       2.00074700
N       -1.93988800      -0.43764800      -0.51613000
N        0.80254000      -1.33206000       0.56648500
C       -3.69029900       1.19933600      -1.14858000
C       -5.63178600      -1.17356200      -0.55449500
F       -4.89291500       1.17872200      -1.76323600
F       -2.81633500       1.68596400      -2.06325200
F       -3.76323500       2.06549100      -0.12349200
F        3.24469100       0.04575400       2.11078500
F        3.96667500      -2.01393100       2.11246300
F        2.08045100      -1.55659700       3.04857300
C       -6.18865900      -0.29763100       0.39341400
C       -6.47506400      -1.96658600      -1.34993700
C       -8.41008700      -0.99161900      -0.27100600
C       -7.85943800      -1.86652200      -1.21399300
C       -7.57268400      -0.21287600       0.53517500
H       -5.53718700       0.29714700       1.02645900
H       -7.99699800       0.45769200       1.27673700
H       -9.48862900      -0.91984400      -0.16217300
H       -8.50761300      -2.46990400      -1.84296300
H       -6.04523000      -2.63993300      -2.08593600
C        4.99104700      -3.24261700      -0.96931400
C        5.04988700      -0.87533500      -0.43107700
C        7.09358700      -2.04214400      -0.99628200
C        6.42813600      -0.86496300      -0.63879800
C        6.37272600      -3.23046900      -1.15885600
H        4.43126300      -4.16589200      -1.08879500
H        6.88609800      -4.14761600      -1.43271500
H        8.16878800      -2.03375400      -1.15106000
H        6.97977200       0.06377900      -0.52521900
H        4.53785100       0.04330100      -0.16919000
