71
Properties=species:S:1:pos:R:3 pbc="F F F"
Si       0.07781800       0.95160200       0.65748600
O       -1.24637600       2.11213800       0.00943100
C       -1.11618800       3.28115900      -0.45125500
C       -2.24303800       4.15517700      -0.63451900
H       -0.12950600       3.62568200      -0.77098000
C       -3.54858800       3.78670800      -0.23837800
C       -2.00899500       5.41296300      -1.23177900
C       -4.59858600       4.67170400      -0.44154500
H       -3.71173100       2.81917000       0.22296800
C       -3.06808300       6.29181800      -1.43321800
H       -0.99874600       5.68409500      -1.52689500
C       -4.35983000       5.92098000      -1.03771500
H       -5.60538800       4.40039800      -0.13865300
H       -2.89481600       7.26032700      -1.89192300
H       -5.18718500       6.60816800      -1.19224300
C        0.10873600       4.69956800       1.98725400
C        0.43752100       3.42754100       2.04955400
H        0.74848300       5.42466200       1.48516700
H       -0.79984300       5.07153900       2.45931600
C        0.70039500       2.15483000       2.02211900
H        1.28621000       1.69520800       2.81723800
Cl      -1.48876400       0.08206500       2.05698900
Cl       1.59545200       1.63918200      -0.89961600
O       -0.46686500      -0.19473000      -0.76030000
O        1.20713500      -0.45173000       1.29103700
C        0.02439900      -2.38751100      -0.23379300
C        1.45861300      -2.06154100      -0.35098700
C        3.35901600      -0.85326800       0.46213000
C       -2.24935900      -1.71280600      -0.56433800
C       -2.70697700      -2.96605800      -0.11754300
C       -0.39244000      -3.67916700       0.07006700
C       -1.74572900      -3.94965300       0.17575700
C        2.27278500      -2.75849300      -1.23895500
C        3.60704500      -2.41092100      -1.35732500
C        4.17439100      -1.42409100      -0.53059500
H        0.35430700      -4.43552900       0.28074300
H       -2.08170700      -4.92661000       0.50517800
H        1.82749700      -3.51671500      -1.87213200
H        4.22785900      -2.87886900      -2.11314500
C        5.56069600      -0.98871100      -0.79924900
C        3.89986400      -0.06187200       1.67662300
N       -0.90916600      -1.43473400      -0.50585800
N        2.01312600      -1.11571400       0.45542900
C       -3.16855400      -0.68148500      -1.26649600
C       -4.13273400      -3.27643300       0.11642000
F       -4.23582900      -1.31484100      -1.80523700
F       -2.54433000      -0.06896600      -2.29340900
F       -3.63096900       0.26262500      -0.42481900
F        5.22664100      -0.26069200       1.82076200
F        3.33057200      -0.50090700       2.82363500
F        3.68726000       1.26363600       1.57455100
C       -4.92556500      -2.40176400       0.87876500
C       -4.68102900      -4.48068600      -0.35552800
C       -6.80093300      -3.91796200       0.66886200
C       -6.01328500      -4.79320500      -0.08721200
C       -6.25271700      -2.72660200       1.15576600
H       -4.49534200      -1.48502900       1.26880600
H       -6.85680900      -2.05184900       1.75533700
H       -7.83708400      -4.16590900       0.88130000
H       -6.43670300      -5.71797400      -0.46837200
H       -4.07115200      -5.15527900      -0.94990000
C        6.58109900      -1.93639100      -0.98104400
C        5.84186200       0.37876500      -0.96147100
C        8.14986600      -0.15510500      -1.45749200
C        7.13155500       0.79031200      -1.29376000
C        7.87288000      -1.51750500      -1.29904500
H        6.36578000      -2.99322900      -0.85125700
H        8.66233600      -2.25316800      -1.42278500
H        9.15545700       0.16832800      -1.71128400
H        7.34037500       1.84764100      -1.42840000
H        5.04702400       1.10955600      -0.84639500
