71
Properties=species:S:1:pos:R:3 pbc="F F F"
Si       0.41348600       1.48039300       0.93631800
O       -0.35066900       3.24089800       0.53939500
C       -0.86567600       3.62507000      -0.54498900
C       -1.62474800       4.84004500      -0.65593300
H       -0.71156900       3.03458900      -1.45545000
C       -1.87873700       5.66759300       0.46200100
C       -2.11818800       5.19354900      -1.93118500
C       -2.61783500       6.83015900       0.29601200
H       -1.49211300       5.38255500       1.43507400
C       -2.85667700       6.36182900      -2.08726700
H       -1.91708800       4.54684500      -2.78123000
C       -3.10576900       7.17659300      -0.97542100
H       -2.81932800       7.47367800       1.14690400
H       -3.23876700       6.64043000      -3.06436700
H       -3.68349400       8.08871500      -1.09694000
C       -3.30479600       1.63050800      -0.41255600
C       -2.32726700       1.15556900       0.31527300
H       -3.49431900       1.25405100      -1.41549400
H       -3.96710900       2.40070000      -0.02056000
C       -1.31029600       0.73986300       1.02238800
H       -1.43070000      -0.10559700       1.69684900
Cl       1.54101100       1.57573600      -0.84773400
Cl       1.14854400       2.32345400       2.70229400
O        1.20885000      -0.20553100       1.46794900
O       -0.66368400      -1.49960000      -2.04786300
C        1.19691600      -1.89643900      -0.14554800
C       -0.23063700      -2.12237500       0.12383300
C       -2.44404400      -2.28712700      -0.77657100
C        3.26245300      -0.90324600       0.57074200
C        3.95930400      -1.53693800      -0.46707600
C        1.88738500      -2.61934000      -1.11643600
C        3.23947100      -2.41480400      -1.30110500
C       -0.69334200      -2.55708600       1.35812900
C       -2.04448200      -2.78537200       1.55289700
C       -2.94921700      -2.61799400       0.48956300
H        1.32856200      -3.30757400      -1.73783000
H        3.76632400      -2.92574800      -2.09923400
H        0.01702600      -2.66985300       2.16916500
H       -2.42318500      -3.06070800       2.53021300
C       -4.39557500      -2.73490300       0.80498300
C       -3.24585100      -2.30415500      -2.08083600
N        1.88962700      -1.01225100       0.62850800
N       -1.09838400      -1.96146000      -0.94284100
C        3.95400500      -0.15204100       1.72628200
C        5.38502000      -1.29131900      -0.78041600
F        5.23962100      -0.54721900       1.85017800
F        3.37066000      -0.41496600       2.91464900
F        3.95072300       1.18648000       1.53024300
F       -3.43718500      -1.05641200      -2.58823700
F       -4.46701300      -2.85827000      -1.92069100
F       -2.62315100      -3.04836900      -3.02991800
C        5.85392800       0.02114300      -0.95519800
C        6.25499600      -2.37382000      -0.98773200
C        8.04970000      -0.83538700      -1.50889900
C        7.58487700      -2.14419500      -1.34069000
C        7.18058600       0.24481400      -1.32163900
H        5.17655100       0.85832300      -0.81815000
H        7.53466900       1.26180700      -1.46391000
H        9.08427300      -0.65818500      -1.78917100
H        8.25685300      -2.98548000      -1.48427900
H        5.89281000      -3.38897100      -0.85156500
C       -4.89290800      -3.90031100       1.40751600
C       -5.25411500      -1.64523600       0.58941200
C       -7.09333000      -2.89770400       1.54495400
C       -6.59563900      -1.72713500       0.96209500
C       -6.23986800      -3.98357700       1.76558900
H       -4.22848900      -4.74303300       1.57752600
H       -6.62140100      -4.89502600       2.21731700
H       -8.13997500      -2.96163400       1.82951200
H       -7.25161600      -0.87632100       0.79964000
H       -4.86459500      -0.73404100       0.14543100
