77
Properties=species:S:1:pos:R:3 pbc="F F F"
Si      -0.40981900       1.48668200       1.11780500
O        1.18733400       1.44747500       0.06480500
C        2.12190900       2.29342800       0.03427700
C        3.15521400       2.23307600      -0.96632300
H        2.20294300       3.03226800       0.83623600
C        3.07171500       1.35158200      -2.06747600
C        4.29907400       3.03848000      -0.78493100
C        4.12636900       1.27751000      -2.96574900
H        2.18138000       0.74475800      -2.19696200
C        5.35785900       2.94628800      -1.68344500
H        4.34907300       3.71369300       0.06520000
C        5.27067300       2.06804400      -2.77046600
H        4.07167800       0.60467800      -3.81602100
H        6.24663900       3.55339500      -1.54281100
H        6.09719400       1.99789200      -3.47197900
C        0.64255200       4.66049500      -1.10438000
C       -0.17398800       3.97299600      -0.33455300
H        1.37304000       5.34816400      -0.67997100
H        0.59119800       4.58776700      -2.19004900
C       -0.90785200       3.22333000       0.43348200
H       -1.89072100       3.56874800       0.75127800
Cl       0.63673200       2.24283500       2.92181000
Cl      -2.31323600       1.09803300       2.20316400
O       -1.10661400       0.69651600      -0.55841100
O        0.08958000      -0.31203500       1.61432100
C       -1.44266700      -1.55668300      -0.19013300
C        0.03033700      -1.69615200      -0.22835500
C        2.10795200      -1.29429600       0.89721500
C       -3.29060900      -0.11739400      -0.69821300
C       -4.19500900      -1.13920800      -0.36430600
C       -2.29854300      -2.63456400       0.05481100
C       -3.66848900      -2.38335000       0.00750400
C        0.67052800      -2.44344900      -1.22533800
C        2.05920700      -2.51149800      -1.17739400
C        2.80629300      -1.94623300      -0.13306200
H       -4.35957600      -3.17274300       0.28433400
H        2.59128900      -3.00837000      -1.98177400
C        4.28423600      -2.02530000      -0.21543300
C        2.77236500      -0.86460800       2.22197500
N       -1.95691800      -0.33057200      -0.48857300
N        0.75853800      -1.09976100       0.75473700
C       -3.67616400       1.19657800      -1.40867700
C       -5.66069800      -0.94593400      -0.29210200
F       -4.89092200       1.08171300      -1.98881600
F       -2.81057100       1.47662800      -2.41168700
F       -3.71654200       2.25444100      -0.57424100
F        3.19829700       0.42032700       2.17416500
F        3.85037500      -1.64330600       2.47049300
F        1.95599700      -1.00839800       3.27907000
C       -6.19051500       0.12523600       0.44612000
C       -6.52734900      -1.87721400      -0.88575100
C       -8.43280800      -0.65463800      -0.02810300
C       -7.90855800      -1.72458400      -0.76123300
C       -7.57133000       0.26545100       0.57926100
H       -5.52023800       0.83219200       0.92558100
H       -7.97402500       1.09058800       1.15964700
H       -9.50849700      -0.54044300       0.07270100
H       -8.57436100      -2.43977500      -1.23578100
H       -6.11811400      -2.70505500      -1.45799300
C        4.90005900      -3.26204700      -0.46889000
C        5.07120900      -0.86583800      -0.12681400
C        7.06501900      -2.18028100      -0.52305900
C        6.45388800      -0.94492700      -0.28623300
C        6.28550200      -3.33865300      -0.61154700
H        4.29472400      -4.16191500      -0.53248500
H        6.75536400      -4.30131900      -0.79134900
H        8.14332200      -2.24047600      -0.64077600
H        7.05089000      -0.03937700      -0.23011800
H        4.60468800       0.09709600       0.04284500
C       -1.79292900      -4.00090800       0.42730800
H       -1.97277000      -4.70224700      -0.39590500
H       -0.72690700      -4.00312100       0.66218100
H       -2.34546300      -4.36773600       1.29798700
C       -0.09827000      -3.10061400      -2.33737800
H        0.56256800      -3.28620200      -3.18755900
H       -0.49576700      -4.06489000      -2.00045500
H       -0.94203400      -2.48656200      -2.66519700
