77
Properties=species:S:1:pos:R:3 pbc="F F F"
Si      -0.18198700       1.05866500       1.37093000
O        1.45524300       1.28777000       0.27233100
C        2.25172900       2.18589400      -0.09455800
C        1.97923500       3.23324200      -1.04198100
H        3.27828900       2.13037700       0.29500400
C        0.79133900       3.26506500      -1.80744700
C        2.97069200       4.22301800      -1.22930000
C        0.60068900       4.28357000      -2.73160700
H        0.04897400       2.48900500      -1.67017000
C        2.76287900       5.24875000      -2.14388800
H        3.88508900       4.17957900      -0.64291000
C        1.57828200       5.27772300      -2.89306100
H       -0.30653400       4.31366500      -3.32754600
H        3.51414500       6.02025700      -2.28163200
H        1.41841500       6.07552000      -3.61332600
C        2.71633400       3.27501300       2.92056700
C        1.78927600       2.34660400       2.99327600
H        3.75421800       3.01910100       2.71025300
H        2.48451600       4.32247800       3.10985700
C        0.86447900       1.43689800       2.94842600
H        0.60927700       0.84243700       3.82496500
Cl      -1.98105200       0.39025400       2.47897100
Cl      -0.85256300       3.11953100       1.00540000
O       -0.87119700       0.57079100      -0.34583600
O        0.42895600      -0.83010000       1.50619100
C       -1.14262300      -1.71756600      -0.43963900
C        0.32878000      -1.79829500      -0.57476600
C        2.43663400      -1.58294400       0.54594700
C       -3.05503500      -0.27363100      -0.53656700
C       -3.90908800      -1.37777900      -0.37456900
C       -1.95404300      -2.85533600      -0.38165200
C       -3.32961000      -2.65137400      -0.29688200
C        0.94222500      -2.29864300      -1.72626000
C        2.33400700      -2.35130700      -1.73363300
C        3.10558400      -2.00134400      -0.61799400
H       -3.98238900      -3.50614700      -0.15201500
H        2.84664600      -2.65731800      -2.63961400
C        4.58083700      -2.03193500      -0.76260800
C        3.14347200      -1.39137000       1.90336400
N       -1.70727100      -0.47836300      -0.44407500
N        1.07991300      -1.40165400       0.49351000
C       -3.55123800       1.13018300      -0.95061800
C       -5.37264800      -1.25327800      -0.19527300
F       -2.69426500       1.72905300      -1.80692000
F       -3.75295000       1.94655500       0.09701100
F       -4.72311100       1.01500700      -1.62073900
F        3.54276200      -0.11171600       2.08674500
F        4.24387900      -2.17778200       1.96378100
F        2.37337900      -1.75020900       2.94765600
C       -5.88671800      -0.37360900       0.77189000
C       -6.24772400      -2.06727900      -0.93222300
C       -8.13306500      -1.10485700       0.24253500
C       -7.62378000      -1.98479200      -0.71885300
C       -7.26231100      -0.30517500       0.99016800
H       -5.20881100       0.23589300       1.36075800
H       -7.65308000       0.36920800       1.74666200
H       -9.20474600      -1.04583900       0.41088500
H       -8.29753700      -2.60573800      -1.30229400
H       -5.85063200      -2.74399700      -1.68353900
C        5.20871800      -3.18332900      -1.26393900
C        5.34866900      -0.89040800      -0.48292000
C        7.35175200      -2.06026100      -1.17582800
C        6.72726200      -0.90550000      -0.69291000
C        6.59003400      -3.19861000      -1.45985300
H        4.61663300      -4.06822900      -1.47979800
H        7.07059400      -4.09824300      -1.83350700
H        8.42653100      -2.07191400      -1.33345300
H        7.31267200      -0.01504200      -0.48251700
H        4.86543600       0.00891400      -0.11715600
C       -1.37765000      -4.24331500      -0.34464000
H       -1.36749900      -4.67204700      -1.35372400
H       -0.35615400      -4.25225700       0.04280200
H       -2.00232700      -4.88529600       0.28236000
C        0.15758600      -2.71846300      -2.93850600
H        0.70048500      -2.43280200      -3.84403200
H        0.04519000      -3.80912700      -2.95029600
H       -0.83766200      -2.26917900      -2.96389700
