77
Properties=species:S:1:pos:R:3 pbc="F F F"
Si       0.04813200       1.13151500       0.63029400
O       -1.21230600       2.26473100      -0.21859800
C       -2.00067100       3.04827200       0.37392900
C       -2.85641600       3.95382700      -0.33697500
H       -2.05474100       3.02691600       1.46664400
C       -2.88321400       4.00195500      -1.75012800
C       -3.68857600       4.80607600       0.42220300
C       -3.73509500       4.89366700      -2.38535500
H       -2.23937300       3.33839600      -2.31793600
C       -4.53693600       5.69851800      -0.22466000
H       -3.65296000       4.75962100       1.50756200
C       -4.55949400       5.74019500      -1.62454700
H       -3.76667800       4.93903800      -3.46961900
H       -5.17791900       6.35879200       0.35102100
H       -5.22354800       6.43617600      -2.12975600
C        0.37833600       4.95258400       1.76249400
C        0.50194800       3.65509000       1.92054700
H       -0.52889200       5.47715800       2.06066400
H        1.18882600       5.54930700       1.34517700
C        0.58614500       2.35786200       2.00583500
H        0.97522100       1.89575600       2.91307200
Cl      -1.57440300       0.27687700       2.01901900
Cl       1.54198700       1.84885000      -0.89114100
O       -0.45391400      -0.06578000      -0.77565500
O        1.16613700      -0.24082600       1.33725600
C        0.08158100      -2.21213400      -0.12660200
C        1.49801400      -1.81841700      -0.31570200
C        3.34249700      -0.53859100       0.53133900
C       -2.20532300      -1.60110500      -0.52710100
C       -2.63960100      -2.81919100       0.02364100
C       -0.29696900      -3.47847500       0.33043600
C       -1.66350400      -3.73277300       0.44090200
C        2.31041200      -2.41231700      -1.28920000
C        3.62517100      -1.96412100      -1.38224500
C        4.16871200      -1.02390900      -0.49465900
H       -1.99147700      -4.66814100       0.88330400
H        4.25232000      -2.33627300      -2.18549800
C        5.53969800      -0.52851000      -0.74679100
C        3.84700700       0.24918100       1.75972100
N       -0.87409100      -1.30483400      -0.47527700
N        2.01721800      -0.87354100       0.51440500
C       -3.12328000      -0.63194900      -1.30634200
C       -4.06245100      -3.14257000       0.26817900
F       -4.20485600      -1.29641100      -1.77169600
F       -2.50142800      -0.12474500      -2.39261300
F       -3.56506300       0.39598300      -0.55217000
F        5.17749800       0.07553100       1.91571200
F        3.27553000      -0.21080800       2.89757900
F        3.60889500       1.57170000       1.66913000
C       -4.87959200      -2.22941000       0.95510100
C       -4.57986700      -4.39125300      -0.11136100
C       -6.71966100      -3.79927800       0.85441100
C       -5.90720800      -4.71253400       0.17371500
C       -6.20163600      -2.56120900       1.24908700
H       -4.47168800      -1.27483400       1.27241700
H       -6.82537100      -1.85507000       1.78963700
H       -7.75155400      -4.05342900       1.08004800
H       -6.30691800      -5.67417100      -0.13514900
H       -3.94953200      -5.09679200      -0.64535600
C        6.58860400      -1.43274000      -0.97776200
C        5.77621500       0.85288900      -0.84420700
C        8.09843700       0.41825400      -1.37205400
C        7.05100500       1.32116700      -1.15972100
C        7.86542300      -0.95816300      -1.27939700
H        6.40596700      -2.50098500      -0.90161200
H        8.67691600      -1.66166000      -1.44215500
H        9.09203300       0.78582800      -1.61286600
H        7.22528200       2.39002800      -1.24339200
H        4.95917300       1.55133700      -0.69158700
C        0.70116200      -4.51531600       0.76577800
H        0.71559000      -5.34277100       0.04651500
H        1.71151300      -4.11244800       0.85702100
H        0.39773200      -4.92718300       1.73334800
C        1.77406200      -3.44065100      -2.24575200
H        2.40156300      -3.47945300      -3.13941100
H        1.78483400      -4.43329100      -1.78097000
H        0.74489100      -3.21757600      -2.54106000
