83
Properties=species:S:1:pos:R:3 pbc="F F F"
Si       0.14429000       1.07197800       0.90920700
O       -1.31100400       2.36259200       0.55724800
C       -1.56407400       2.91625100      -0.53825200
C       -2.68958500       3.79074300      -0.72662300
H       -0.91025900       2.72950900      -1.39848600
C       -3.58612700       4.09296800       0.32340400
C       -2.89188500       4.33069200      -2.01503800
C       -4.66810400       4.92583600       0.07654600
H       -3.41690500       3.66733400       1.30706000
C       -3.98038500       5.16400400      -2.25321600
H       -2.19406600       4.08470600      -2.81148200
C       -4.86474700       5.45990300      -1.20837800
H       -5.36439800       5.16550900       0.87437700
H       -4.14396300       5.58226700      -3.24145700
H       -5.71521600       6.11050100      -1.39302600
C        2.08603200       4.26391900      -0.66888000
C        1.68227300       3.02027600      -0.59883600
H        1.51154400       5.01848400      -1.20459200
H        3.00994500       4.57941800      -0.18538200
C        1.26891600       1.78778700      -0.49256600
H        1.56987300       1.09137200      -1.27704100
Cl      -1.30182400       0.10474800       2.34202500
Cl       0.80683900       2.45230400       2.52278400
O       -0.60472500       0.00049000      -0.52374900
O        1.34411000      -0.28859300       1.39089200
C        0.03440600      -2.17874600      -0.12043300
C        1.44020100      -1.79375900      -0.36861600
C        3.44005700      -0.66809200       0.37887800
C       -2.29648500      -1.63697300      -0.39648600
C       -2.61947000      -2.97120100      -0.05737400
C       -0.27254200      -3.49864200       0.16277700
C       -1.60503100      -3.88514500       0.23574400
C        2.14552100      -2.44126200      -1.36922300
C        3.49342700      -2.15693400      -1.54833000
C        4.15014200      -1.28100900      -0.68211200
H        0.53594000      -4.20061000       0.32796500
H       -1.86545500      -4.90606700       0.49368700
H        1.62467200      -3.14741200      -2.00456300
H        4.04872900      -2.62750700      -2.35246200
C        5.60387200      -1.04581700      -0.88735600
C        4.17165600       0.06740000       1.48738900
N       -0.97514200      -1.27792900      -0.32319500
N        2.08681100      -0.89211300       0.43421000
C       -3.34273400      -0.69797600      -0.97411400
C       -4.02846300      -3.44678400      -0.02898700
C       -4.93955600      -2.93978100       0.90935000
C       -4.43990000      -4.45223200      -0.91761400
C       -6.66014300      -4.41235700       0.04923000
C       -5.75276200      -4.92724600      -0.88221800
C       -6.24895600      -3.42299600       0.94818700
H       -4.61510900      -2.18917600       1.62245500
H       -6.94483500      -3.03043800       1.68440700
H       -7.68043400      -4.78465900       0.07859300
H       -6.06524800      -5.69842700      -1.58087800
H       -3.73416100      -4.84864600      -1.64266400
C        6.49778100      -2.12596600      -0.81611600
C        6.08984800       0.23217900      -1.20213100
C        8.34275200      -0.64650800      -1.33852400
C        7.45311500       0.42902000      -1.42852800
C        7.86238300      -1.92413700      -1.03392500
H        6.12340000      -3.11696000      -0.57386800
H        8.54848200      -2.76368100      -0.96476800
H        9.40422900      -0.49049100      -1.50975900
H        7.81874200       1.42105400      -1.67852600
H        5.39855300       1.06345100      -1.29010100
C        4.14209900       1.60368200       1.38653200
C        3.79168500      -0.40518200       2.90827500
H        5.21160200      -0.23274600       1.33342800
C       -2.90728100      -0.02383200      -2.29326800
H       -4.15804800      -1.37565600      -1.24298100
C       -3.94407300       0.31493900       0.01818000
H       -3.80848500       0.36224900      -2.78133800
H       -2.21967500       0.80586200      -2.12857600
H       -2.42954300      -0.74185500      -2.96943400
H       -3.19497500       0.99955700       0.40540100
H       -4.71729100       0.88630000      -0.50744900
H       -4.40635500      -0.19366200       0.86723800
H        3.14497500       1.98889400       1.58976200
H        4.83552600       2.00010800       2.13696900
H        4.46102800       1.95215900       0.40130200
H        2.85641300       0.04160300       3.24705900
H        3.70749300      -1.49663000       2.95972700
H        4.59604700      -0.09105900       3.58243700
