83
Properties=species:S:1:pos:R:3 pbc="F F F"
Si      -0.00365000       1.07368400       0.19766200
O       -1.27623300       2.19375700      -0.76348600
C       -1.95308600       3.24748300      -0.68024600
C       -1.45894800       4.59458000      -0.57002000
H       -3.04274800       3.13514200      -0.76831400
C       -0.09908300       4.92439100      -0.76765100
C       -2.40529400       5.61244200      -0.31040400
C        0.29974100       6.25286900      -0.68582000
H        0.60979600       4.13983500      -1.00231200
C       -1.99240000       6.93516200      -0.20707900
H       -3.45103300       5.34657900      -0.17768200
C       -0.63977200       7.25327700      -0.39504500
H        1.34044700       6.51740100      -0.84732300
H       -2.71230600       7.71852200       0.00908800
H       -0.31725200       8.28872500      -0.32585100
C       -3.45704500       2.24412900       1.90703900
C       -2.44791500       1.41880000       1.73781400
H       -4.41830400       2.07431500       1.42557000
H       -3.36672500       3.10591100       2.56769900
C       -1.39826300       0.68822100       1.51158600
H       -1.20050300      -0.17522000       2.14797000
Cl       1.45608800       1.49021500      -1.42791800
Cl       0.75446200       2.75608700       1.48944000
O        1.12431700      -0.14807400       1.08903200
O       -0.57173300      -0.30576800      -0.98567300
C        1.18752800      -2.13740800      -0.11009100
C       -0.26373000      -2.31101600       0.09739100
C       -2.50160900      -1.55921400      -0.43440100
C        3.22819100      -0.98606400       0.46185300
C        3.95057700      -1.95191100      -0.28069200
C        1.89661800      -3.12033500      -0.78028400
C        3.27485600      -3.00570100      -0.89991700
C       -0.75865000      -3.45228300       0.70529700
C       -2.13316000      -3.65600900       0.73857400
C       -3.00675800      -2.74571500       0.13687600
H        1.35439900      -3.95141400      -1.21480200
H        3.83864000      -3.74543800      -1.45797800
H       -0.06509500      -4.16929700       1.12744000
H       -2.53971200      -4.54845100       1.20288700
C       -4.45470900      -3.08962900       0.12423700
C       -3.30226200      -0.46073900      -1.09794500
N        1.85847300      -1.07454800       0.43764800
N       -1.13614700      -1.39671800      -0.41578600
C        3.94415700      -0.01730700       1.38724900
C        5.43220400      -1.90971200      -0.38902800
C        6.08497500      -0.81209900      -0.97080700
C        6.18932000      -3.00775200       0.05054600
C        8.22585300      -1.89703700      -0.64453900
C        7.58032300      -2.99696700      -0.07069100
C        7.47475200      -0.80826800      -1.09950300
H        5.50246500       0.02517200      -1.33978300
H        7.96944800       0.04295900      -1.55886500
H        9.30801700      -1.89026900      -0.74103200
H        8.15822200      -3.84617300       0.28327900
H        5.68657400      -3.85968100       0.50062600
C       -5.07247100      -3.52150500      -1.05691600
C       -5.19406100      -3.02936300       1.31312500
C       -7.17025500      -3.77395200       0.12758200
C       -6.55001500      -3.36256600       1.31183800
C       -6.42720600      -3.86168900      -1.05375600
H       -4.49385100      -3.59706600      -1.97216100
H       -6.90012700      -4.19595200      -1.97301100
H       -8.22555600      -4.03236100       0.12707300
H       -7.12120300      -3.29885400       2.23383800
H       -4.71195000      -2.69803600       2.22869800
C       -3.41939600      -0.73300800      -2.61522900
C       -4.67165500      -0.16062600      -0.46469800
H       -2.70428800       0.43955500      -0.98793700
C        3.41542600      -0.04761900       2.83928600
H        4.95870700      -0.42184700       1.42576300
C        4.07249400       1.42744900       0.87207900
H        4.19058300       0.38927400       3.47846500
H        2.50082000       0.53623200       2.94869500
H        3.23052800      -1.07375500       3.17753400
H        3.10890500       1.93290400       0.88147500
H        4.75928900       1.95921100       1.54083200
H        4.47846000       1.46101800      -0.14184300
H       -4.04491800      -1.60955100      -2.80748400
H       -3.88644400       0.13693300      -3.09010200
H       -2.43386200      -0.88723300      -3.06613300
H       -5.43305300      -0.89304000      -0.73761600
H       -4.60210600      -0.11433800       0.62541200
H       -4.99523200       0.81925700      -0.83292000
