83
Properties=species:S:1:pos:R:3 pbc="F F F"
Si       0.50448100       1.53693800      -0.89766200
O       -1.04105000       1.40197400       0.41676300
C       -1.85431200       2.31196000       0.69336500
C       -2.97936800       2.10728200       1.57026100
H       -1.72602000       3.30449400       0.24694300
C       -3.15564900       0.90525500       2.29130200
C       -3.92876400       3.14570700       1.67655800
C       -4.27238700       0.75064800       3.09944900
H       -2.41014900       0.12152100       2.21105700
C       -5.05458000       2.97527000       2.47760000
H       -3.77787700       4.06676800       1.11952300
C       -5.22425800       1.78055300       3.18708000
H       -4.41231200      -0.16338600       3.66855800
H       -5.79454800       3.76559200       2.55522800
H       -6.09895500       1.64923000       3.81791900
C       -1.87554200       4.59736500      -2.21714800
C       -1.23331900       3.45425300      -2.26210600
H       -2.90264200       4.65420400      -1.85762200
H       -1.40258300       5.52459300      -2.53832400
C       -0.59255200       2.31827000      -2.27816800
H       -0.65231100       1.70527200      -3.17971600
Cl       2.26369500       1.29812100      -2.23167500
Cl       1.07873100       3.45220000       0.08215100
O        1.33254100       0.65393500       0.55136000
O       -0.11119900      -0.17176200      -1.50387600
C        1.50041300      -1.62587500       0.10367100
C        0.03330200      -1.75122300       0.16560700
C       -2.11187800      -1.18721500      -0.79903600
C        3.47467000      -0.31361800       0.54762500
C        4.26387300      -1.44867300       0.24308400
C        2.26852100      -2.75758600      -0.11809500
C        3.65280100      -2.65775300      -0.09325800
C       -0.56049000      -2.67930100       1.00848200
C       -1.93042800      -2.88947800       0.92537000
C       -2.70734400      -2.18564300      -0.00255900
H        1.76883300      -3.69498700      -0.33034600
H        4.26817500      -3.52362600      -0.31289600
H        0.06138200      -3.23696200       1.69814100
H       -2.40668500      -3.63157100       1.55740800
C       -4.14250600      -2.55452600      -0.12437100
C       -2.81254800      -0.25560800      -1.76363200
N        2.11836400      -0.42960500       0.36197500
N       -0.74764100      -1.03124300      -0.68639900
C        4.09018500       0.89207300       1.24112500
C        5.74830800      -1.40221200       0.30859400
C        6.47780700      -0.57187700      -0.55543000
C        6.43317100      -2.23566400       1.20687900
C        8.55115100      -1.38305300       0.39872000
C        7.82862800      -2.21963400       1.25569900
C        7.87310400      -0.56507400      -0.51075400
H        5.95333700       0.04660000      -1.27595400
H        8.42916200       0.07555100      -1.18950200
H        9.63696800      -1.37307900       0.43543300
H        8.34993900      -2.85985500       1.96196600
H        5.87003000      -2.88201900       1.87473100
C       -4.60930800      -3.19210000      -1.28231200
C       -5.02522700      -2.31866500       0.93847400
C       -6.83703500      -3.29466300      -0.33792900
C       -6.36949200      -2.67813800       0.82717000
C       -5.95207200      -3.56022100      -1.38767500
H       -3.92030500      -3.40891600      -2.09220200
H       -6.30502200      -4.05505600      -2.28811900
H       -7.88338800      -3.57405200      -0.42402200
H       -7.05079300      -2.47515500       1.64882900
H       -4.66530400      -1.83039400       1.83871600
C       -2.75884200      -0.80338500      -3.20701300
C       -4.23756300       0.17137200      -1.36803600
H       -2.21487900       0.65477900      -1.76678800
C        3.32603500       1.32789000       2.51120800
H        5.05132200       0.49893100       1.58556100
C        4.42260900       2.10227600       0.34888000
H        4.01585900       1.92439600       3.11831400
H        2.45453600       1.93717000       2.26920000
H        3.00763200       0.46299800       3.10466600
H        3.51908800       2.59070600      -0.00941100
H        4.99290900       2.81327700       0.95794700
H        5.03287500       1.81404900      -0.50951500
H       -3.39121500      -1.68951700      -3.31198700
H       -3.13169200      -0.02912700      -3.88637200
H       -1.73352900      -1.05472000      -3.49482200
H       -4.47829400       1.06992400      -1.94707500
H       -4.98355200      -0.59174600      -1.59592700
H       -4.30607100       0.42036100      -0.30544900
