83
Properties=species:S:1:pos:R:3 pbc="F F F"
Si      -0.45391900       1.43314800       1.08571600
O        1.04600700       1.51964400      -0.18328500
C        1.63435900       2.53850900      -0.62590800
C        2.80380400       2.46192300      -1.46503600
H        1.23179000       3.52855200      -0.39964000
C        3.30321600       1.23681100      -1.95826200
C        3.42928500       3.67585500      -1.82081100
C        4.41145800       1.23644500      -2.79407200
H        2.80317000       0.31184800      -1.69304200
C        4.55016500       3.66507600      -2.64541000
H        3.03101400       4.61189800      -1.43834900
C        5.03813700       2.44680200      -3.13270200
H        4.79482600       0.30310400      -3.19514700
H        5.03933700       4.59596400      -2.91458900
H        5.90689400       2.43629000      -3.78497200
C        2.56274400       3.85508600       2.15445100
C        1.58307700       3.01271500       2.39221800
H        2.39278600       4.93066600       2.12444000
H        3.58163200       3.49938600       2.00264500
C        0.62085400       2.14841400       2.52644900
H        0.34716200       1.79455700       3.52057900
Cl      -2.18620300       0.96090600       2.41237600
Cl      -1.19916600       3.45339000       0.41886600
O       -1.28003600       0.73206900      -0.44839300
O        0.22053500      -0.31868400       1.52103100
C       -1.43618600      -1.57214100      -0.25129100
C        0.03352400      -1.67711700      -0.33962200
C        2.14461200      -1.46479800       0.79598800
C       -3.42177000      -0.24449400      -0.56832100
C       -4.19601900      -1.41604600      -0.39680400
C       -2.18852300      -2.72970300      -0.14393600
C       -3.57515300      -2.64434800      -0.17366700
C        0.60733300      -2.45804200      -1.32864300
C        1.97023100      -2.72882700      -1.27903000
C        2.72997700      -2.28034900      -0.19890200
H       -1.67867600      -3.67815200      -0.02583000
H       -4.18187900      -3.53521100      -0.05146000
H       -0.02421100      -2.85850400      -2.11252300
H        2.43785600      -3.33152600      -2.05015400
C        4.16423500      -2.68705100      -0.12158600
C        2.96577700      -0.99537400       1.98133400
N       -2.06657800      -0.36609700      -0.38816900
N        0.82233300      -1.13247100       0.63811700
C       -4.06193700       1.02848900      -1.09474700
C       -5.68172200      -1.37999500      -0.48585600
C       -6.44255100      -0.78429600       0.53006800
C       -6.32943800      -1.99381400      -1.56862300
C       -8.48001000      -1.38968200      -0.63257400
C       -7.72413500      -1.99186500      -1.64363100
C       -7.83727900      -0.79201000       0.45618400
H       -5.94382100      -0.33608300       1.38348700
H       -8.41995400      -0.33425500       1.25072900
H       -9.56498400      -1.39092000      -0.69026700
H       -8.21865100      -2.46061200      -2.48992800
H       -5.73875300      -2.45830500      -2.35358400
C        4.54910200      -3.77040700       0.68206200
C        5.12779300      -2.01284700      -0.88150200
C        6.84839500      -3.48833800      -0.02901400
C        6.46653500      -2.41119400      -0.83341300
C        5.88690600      -4.16842100       0.72634300
H        3.80180700      -4.29607200       1.27045000
H        6.17716800      -5.00938900       1.34995800
H        7.88906300      -3.79798700       0.00892100
H        7.20757000      -1.87831100      -1.42280900
H        4.83244900      -1.17400800      -1.50215900
C        3.68480800       0.33292300       1.66509800
C        2.26887900      -0.97512600       3.35414200
H        3.75027300      -1.75162900       2.05662600
C       -3.28590000       1.69947300      -2.24791900
H       -4.99326600       0.65619700      -1.53335700
C       -4.48281500       2.04774800      -0.01851300
H       -3.98994100       2.34973100      -2.77881200
H       -2.45673700       2.30461700      -1.88116100
H       -2.90373000       0.95639000      -2.95757400
H       -3.61754000       2.47623700       0.48270900
H       -5.03906700       2.84896900      -0.51872600
H       -5.13487600       1.58856300       0.72825900
H        4.32530400       0.59171900       2.51528800
H        4.31262900       0.23832400       0.77361100
H        2.96383000       1.13445200       1.51687800
H        1.65668800      -0.08516400       3.49049600
H        1.64162400      -1.86125600       3.49801500
H        3.05440600      -0.98135000       4.11814900
