89
Properties=species:S:1:pos:R:3 pbc="F F F"
Si       0.07143400       0.86647700       0.85866200
O       -1.24471400       2.17592800       0.32123600
C       -1.32729800       3.39466600       0.62004700
C       -2.21268100       4.30014400      -0.06846000
H       -0.73689200       3.78141900       1.45580900
C       -2.97025200       3.90210200      -1.19168400
C       -2.30709700       5.62115700       0.41845600
C       -3.80960800       4.81799600      -1.81145300
H       -2.88426600       2.88621500      -1.55867600
C       -3.15455500       6.53162800      -0.20584400
H       -1.71611300       5.91536100       1.28191400
C       -3.90350800       6.13000000      -1.31893800
H       -4.39392400       4.52137900      -2.67743200
H       -3.23346000       7.54827800       0.16671600
H       -4.56320900       6.84121700      -1.80837400
C        1.35710400       4.25275500      -0.81508800
C        1.39547200       2.95403300      -0.62360200
H        1.93314800       4.93086900      -0.18634600
H        0.77015500       4.68838900      -1.62245500
C        1.34282600       1.68079600      -0.36342700
H        2.03687800       1.01569400      -0.87615700
Cl      -1.54723300      -0.07296400       2.11030600
Cl       0.73249100       2.04958900       2.66465000
O       -0.48882900      -0.10696200      -0.67264700
O        1.18885700      -0.56569600       1.36598900
C       -0.07894300      -2.32150000      -0.27228400
C        1.35849000      -2.00996800      -0.41977600
C        3.35764600      -0.96817400       0.48312400
C       -2.34905500      -1.58669300      -0.70325200
C       -2.79143900      -2.84766900      -0.21992200
C       -0.49826900      -3.60583700       0.01388400
C       -1.86290200      -3.84132500       0.10596500
C        2.08420100      -2.62658600      -1.42226900
C        3.41791800      -2.28282100      -1.57751200
C        4.05290800      -1.43300200      -0.66567800
H        0.23627800      -4.37495600       0.21913200
H       -2.22772800      -4.80599700       0.44258300
H        1.58111800      -3.30330200      -2.10242700
H        3.98384500      -2.65969700      -2.42279100
C        5.43284800      -1.01651100      -1.02913400
C        4.03869800      -0.40173700       1.75672100
N       -0.99955100      -1.35168600      -0.54932400
N        1.98651800      -1.16576000       0.45491900
C       -3.23428800      -0.58736600      -1.49647900
C       -4.21521600      -3.17381800       0.05582000
C       -4.90965400      -2.45011300       1.03557700
C       -4.83728600      -4.26617100      -0.56783300
C       -6.85351100      -3.85779800       0.71019600
C       -6.15415500      -4.59849200      -0.24976100
C       -6.22488500      -2.79106300       1.35898300
H       -4.41021500      -1.63869500       1.55494000
H       -6.75390800      -2.22658900       2.12182700
H       -7.87893600      -4.11797800       0.95761100
H       -6.63494900      -5.43402800      -0.75093800
H       -4.29646100      -4.83292400      -1.32047400
C        6.44615800      -1.97136900      -1.20165000
C        5.69961100       0.33243000      -1.30529300
C        7.99194600      -0.22421600      -1.85214200
C        6.97563000       0.72581700      -1.71356900
C        7.72246900      -1.57443900      -1.60089000
H        6.23827200      -3.01720800      -0.99309200
H        8.50699200      -2.31745000      -1.71402300
H        8.98639100       0.08362700      -2.16308300
H        7.17255100       1.77266500      -1.92711500
H        4.90651100       1.06748800      -1.21610300
C       -4.28357800      -1.38686600      -2.32077500
C       -3.98750500       0.40227000      -0.58076600
C       -2.41901500       0.22415400      -2.54342200
H       -4.76414100      -0.68483000      -3.00915500
H       -3.80899300      -2.17920400      -2.91027200
H       -5.06334900      -1.82458900      -1.69980500
H       -4.52303200       1.11136200      -1.22266600
H       -4.72275800      -0.11479500       0.03816500
H       -3.30018500       0.94956900       0.06229900
H       -3.13906600       0.69146000      -3.22237800
H       -1.81557900       1.00538400      -2.08874600
H       -1.76533500      -0.42746700      -3.13376900
C        4.12414900       1.13965600       1.72152600
C        3.29934600      -0.84851600       3.05339400
C        5.48163600      -0.96510700       1.88826500
H        6.17298100      -0.53695600       1.16510500
H        5.84274700      -0.69604300       2.88528400
H        5.49850100      -2.05661800       1.79745600
H        3.13979100       1.59189400       1.60843600
H        4.55588100       1.47412800       2.67203800
H        4.77594200       1.47530100       0.91095100
H        2.39424800      -0.27495000       3.23551300
H        3.05023900      -1.91541900       3.02125100
H        3.98317000      -0.68402300       3.89161000
