89
Properties=species:S:1:pos:R:3 pbc="F F F"
Si      -0.48127300       1.28185300       1.14697500
O        1.09674600       1.48741000       0.01463500
C        1.76290600       2.53187500      -0.20480000
C        2.96446100       2.53220500      -1.00128600
H        1.40054000       3.48856900       0.17784200
C        3.39429900       1.38999900      -1.70953500
C        3.69715100       3.73588800      -1.08713800
C        4.54558700       1.45242400      -2.48239000
H        2.81261400       0.47777400      -1.65266700
C        4.85726800       3.78674300      -1.85314500
H        3.35135100       4.61177600      -0.54462700
C        5.27945700       2.64651500      -2.54962700
H        4.88101800       0.57650200      -3.02861500
H        5.43033200       4.70664300      -1.91541600
H        6.18243900       2.68839000      -3.15241500
C        2.73498000       3.10866900       2.71192800
C        1.60257400       2.44541900       2.77509100
H        2.76116400       4.19730900       2.73676400
H        3.68679300       2.58040900       2.65946800
C        0.50442200       1.74920800       2.74283100
H        0.06177900       1.39815300       3.67538300
Cl      -2.32179800       0.68276200       2.26339400
Cl      -1.13124300       3.40305700       0.74884900
O       -1.20057500       0.83725300      -0.51971500
O        0.11118600      -0.57757900       1.37987300
C       -1.39329700      -1.44254900      -0.69019300
C        0.08131900      -1.52729200      -0.71698300
C        2.07695200      -1.67901800       0.63761900
C       -3.37575000      -0.05752300      -0.85210200
C       -4.14784300      -1.23817800      -0.67622500
C       -2.14483000      -2.60157300      -0.73766500
C       -3.52523800      -2.48975100      -0.65603400
C        0.74136900      -2.03647500      -1.82126800
C        2.11833800      -2.18789600      -1.75206600
C        2.79853400      -2.00527400      -0.54026000
H       -1.64362000      -3.56161500      -0.76193400
H       -4.14063300      -3.37843300      -0.56333200
H        0.18068600      -2.25503400      -2.72223800
H        2.68442200      -2.46396200      -2.63524200
C        4.27821300      -2.09190700      -0.58376100
C        2.54677900      -1.96956100       2.08619100
N       -2.01615600      -0.22971400      -0.67395800
N        0.77868600      -1.24493400       0.42392800
C       -3.93668100       1.28491200      -1.39547500
C       -5.61074900      -1.22743500      -0.42645300
C       -6.11176200      -0.54546500       0.69207400
C       -6.48571300      -1.97184700      -1.23282200
C       -8.35210800      -1.28907700       0.15091100
C       -7.85143100      -1.99260900      -0.95084600
C       -7.47836800      -0.57595600       0.97714600
H       -5.42678600      -0.01211800       1.34306300
H       -7.85763400      -0.04677100       1.84689000
H       -9.41631500      -1.30571200       0.36909800
H       -8.52531500      -2.55503400      -1.59114600
H       -6.09650000      -2.50661800      -2.09488800
C        4.91763300      -3.19779300      -1.16524900
C        5.05184500      -1.01776400      -0.11897500
C        7.07583000      -2.17275800      -0.76850500
C        6.44277700      -1.05778800      -0.21088500
C        6.30946300      -3.24099800      -1.24862400
H        4.32265500      -4.03201700      -1.52632200
H        6.79628600      -4.10870300      -1.68489600
H        8.15966900      -2.20768600      -0.83462000
H        7.02998000      -0.21680100       0.14705100
H        4.55914800      -0.14609800       0.29496300
C       -5.15820900       0.99478100      -2.31424000
C       -4.39772300       2.25040500      -0.28170900
C       -2.90035300       2.00871200      -2.30472100
H       -5.40597400       1.92969400      -2.82572300
H       -4.92308600       0.23737300      -3.07022300
H       -6.04036700       0.68184600      -1.75891000
H       -4.67996300       3.19707900      -0.75725600
H       -5.27337600       1.85449900       0.23734400
H       -3.60481200       2.44314800       0.43872100
H       -3.44491900       2.76599100      -2.87712000
H       -2.12245000       2.50867600      -1.73349800
H       -2.43916000       1.31191200      -3.01455500
C        3.07106300      -0.72314300       2.82205100
C        1.36906200      -2.59032400       2.89647200
C        3.66056200      -3.05173500       2.09828700
H        4.62820000      -2.67138200       1.77538500
H        3.76752700      -3.38833700       3.13404600
H        3.39347100      -3.91620400       1.48171200
H        2.30548100       0.04691600       2.87837900
H        3.35085500      -1.01957300       3.83963500
H        3.95967300      -0.31861600       2.32947400
H        0.57546300      -1.87500200       3.10173700
H        0.94884700      -3.45456600       2.36855600
H        1.77675600      -2.93777600       3.85053500
