89
Properties=species:S:1:pos:R:3 pbc="F F F"
Si      -0.47926400       1.07002000       1.35175700
O        1.14833300       1.31615300       0.31197300
C        2.01466500       2.21619300       0.42741100
C        3.05993300       2.38861000      -0.54761000
H        2.00712400       2.85790600       1.31591200
C        3.04125600       1.69725400      -1.78002600
C        4.13209800       3.24849900      -0.23030500
C        4.08965100       1.86199200      -2.67264200
H        2.20369200       1.04908100      -2.01431700
C        5.18800600       3.39429600      -1.12570100
H        4.13020700       3.77878000       0.71823800
C        5.16491900       2.70339600      -2.34322300
H        4.08414500       1.33709200      -3.62290200
H        6.02335700       4.04358400      -0.88302200
H        5.98777800       2.82084600      -3.04278300
C        0.08644900       4.61280000      -0.53089600
C       -0.45334800       3.79780900       0.34734600
H        0.99297100       5.17237200      -0.30286300
H       -0.36856000       4.77226000      -1.50818000
C       -0.93933700       2.94104200       1.19923300
H       -1.67409300       3.27528600       1.93282900
Cl       0.58852700       1.45719600       3.30426800
Cl      -2.35633600       0.42345600       2.36410700
O       -1.18220000       0.76347300      -0.39289100
O        0.06262700      -0.73915500       1.43487000
C       -1.39315000      -1.50765000      -0.68176300
C        0.08104400      -1.59600900      -0.69417300
C        2.12780600      -1.60478900       0.60872600
C       -3.33951800      -0.07763000      -0.85515900
C       -4.14197000      -1.24452000      -0.76174900
C       -2.16547400      -2.64832800      -0.80400300
C       -3.54557000      -2.51045900      -0.77111600
C        0.74153000      -2.05278000      -1.81881500
C        2.12530600      -2.12641900      -1.78071900
C        2.82995400      -1.89353100      -0.59342600
H       -1.68296400      -3.61720100      -0.85039000
H       -4.18171900      -3.38861200      -0.73621600
H        0.17547200      -2.28232400      -2.71350600
H        2.68217100      -2.37599100      -2.67778900
C        4.31277200      -1.93919500      -0.71431000
C        2.72891300      -1.76587500       2.03169000
N       -1.99156900      -0.28278900      -0.63901200
N        0.78634000      -1.30558400       0.43890400
C       -3.83293500       1.31444500      -1.32996900
C       -5.61003500      -1.20474800      -0.55238000
C       -6.12290600      -0.54731700       0.57609000
C       -6.48260100      -1.88681200      -1.41301400
C       -8.36778600      -1.19614100      -0.05860700
C       -7.85669200      -1.87311700      -1.17174300
C       -7.49728000      -0.54305000       0.81983700
H       -5.44095300      -0.05621200       1.26277700
H       -7.88632800      -0.03337900       1.69688800
H       -9.43814100      -1.18603800       0.12761100
H       -8.52872000      -2.38773300      -1.85295800
H       -6.08464800      -2.40118700      -2.28343900
C        4.94240700      -3.10471200      -1.18109800
C        5.08337200      -0.79324800      -0.47488400
C        7.09205500      -1.99369300      -1.09873300
C        6.46624200      -0.82167100      -0.66570100
C        6.32486600      -3.13474300      -1.36106400
H        4.34690200      -3.99298300      -1.37222400
H        6.80361100      -4.04755500      -1.70437100
H        8.16898800      -2.01705100      -1.24016000
H        7.04982800       0.07612500      -0.48265600
H        4.60103000       0.12652000      -0.16868700
C       -5.12520300       1.17000900      -2.17948400
C       -4.12564000       2.27528000      -0.16012200
C       -2.78494900       1.97237000      -2.27893800
H       -5.30721200       2.13716900      -2.65779400
H       -5.01059000       0.41367800      -2.96344400
H       -6.00227000       0.92964400      -1.58103100
H       -4.41634500       3.24414100      -0.58290100
H       -4.94943400       1.90505100       0.45511700
H       -3.24489300       2.41261800       0.46396100
H       -3.28027800       2.80477500      -2.78790100
H       -1.92512800       2.36341000      -1.74002100
H       -2.44200500       1.26277500      -3.04118200
C        3.47526100      -0.49914700       2.50548600
C        1.66015700      -2.15355100       3.09242600
C        3.74273600      -2.94789300       2.01728700
H        4.65871600      -2.71382800       1.47859000
H        4.01564900      -3.15436700       3.05639900
H        3.29647700      -3.85282400       1.59036300
H        2.83189700       0.37982600       2.47651100
H        3.78224100      -0.65955600       3.54535900
H        4.37271500      -0.32476100       1.90963300
H        1.05371900      -1.30779700       3.40568600
H        1.00450300      -2.95054800       2.72459100
H        2.19804100      -2.53132900       3.96746300
