89
Properties=species:S:1:pos:R:3 pbc="F F F"
Si      -0.47747400       0.95044800       1.47875300
O        1.24909500       1.34377300       0.66482100
C        1.54653200       1.70216000      -0.50351600
C        2.84121400       2.25135200      -0.81894400
H        0.84076000       1.52982700      -1.32246500
C        3.75680300       2.61364700       0.19384000
C        3.19683900       2.37559500      -2.17759000
C        5.01396600       3.08506600      -0.15919200
H        3.46479000       2.51894300       1.23432000
C        4.46489200       2.83429300      -2.52152000
H        2.47902100       2.10054700      -2.94595600
C        5.37026000       3.18861300      -1.51378700
H        5.72413800       3.36982700       0.61105500
H        4.75028000       2.91969800      -3.56534500
H        6.35876000       3.55072400      -1.78211200
C        0.01893600       4.37736400      -0.49631700
C       -0.47260500       3.65577000       0.48802200
H       -0.53090400       4.50639900      -1.42828200
H        0.96764700       4.90253000      -0.39479100
C       -0.88967400       2.84213600       1.41074000
H       -1.51546500       3.19657600       2.22951600
Cl       0.48614200       1.18013100       3.49442200
Cl      -2.40352800       0.27228000       2.36766900
O       -1.15124800       0.75667700      -0.31179300
O        0.07861900      -0.85397900       1.43627800
C       -1.38798400      -1.49509900      -0.71608100
C        0.08398700      -1.58826900      -0.73944800
C        2.15121100      -1.63008000       0.52934300
C       -3.31334100      -0.03747200      -0.85300400
C       -4.13093400      -1.19646800      -0.80581800
C       -2.17148200      -2.62097300      -0.89212000
C       -3.55008500      -2.46848400      -0.86024100
C        0.72819100      -1.99392200      -1.89232000
C        2.11255100      -2.06396000      -1.87956600
C        2.83341000      -1.86576300      -0.69690300
H       -1.69865800      -3.59209400      -0.97580100
H       -4.19686200      -3.33962300      -0.86232700
H        0.14766800      -2.18840300      -2.78607400
H        2.65634800      -2.27619400      -2.79399900
C        4.31449100      -1.87766800      -0.85024400
C        2.78948400      -1.81623600       1.93071200
N       -1.97027600      -0.26602500      -0.62860800
N        0.80121500      -1.34331300       0.39791000
C       -3.77703200       1.37116100      -1.29882400
C       -5.59740400      -1.13919100      -0.59508100
C       -6.09861200      -0.49115900       0.54441700
C       -6.48131100      -1.79463400      -1.46454000
C       -8.35316000      -1.10196700      -0.09296300
C       -7.85439500      -1.76712000      -1.21871200
C       -7.47190300      -0.47306200       0.79250200
H       -5.40841800      -0.01673800       1.23458000
H       -7.85198900       0.02884300       1.67789700
H       -9.42270100      -1.08149800       0.09702700
H       -8.53516900      -2.26186500      -1.90588800
H       -6.09236200      -2.30011500      -2.34417300
C        4.96401600      -3.02135300      -1.34084800
C        5.05607200      -0.71103700      -0.62072000
C        7.08334000      -1.85005700      -1.29692400
C        6.43477400      -0.69889000      -0.84168600
C        6.34268800      -3.01024200      -1.55122100
H        4.39005400      -3.92473400      -1.52672700
H        6.83930100      -3.90639700      -1.91261300
H        8.15707800      -1.84237000      -1.46221000
H        6.99698400       0.21344500      -0.66328300
H        4.55631600       0.19177300      -0.29172600
C       -5.09975600       1.29392100      -2.10688200
C       -3.99074800       2.33449900      -0.11522200
C       -2.73222200       1.97449900      -2.28624900
H       -5.23832000       2.26677600      -2.58853200
H       -5.05461600       0.52626500      -2.88627100
H       -5.97022900       1.11108900      -1.47891800
H       -4.28047200       3.31097700      -0.52124500
H       -4.79348300       1.97789000       0.53559800
H       -3.08002900       2.45142700       0.46765100
H       -3.17073200       2.88074700      -2.71482100
H       -1.79903200       2.24407300      -1.79763400
H       -2.52506000       1.27496700      -3.10495700
C        3.47102300      -0.52167400       2.42828600
C        1.76071800      -2.30050800       2.99294700
C        3.86620800      -2.93788900       1.86141800
H        4.76769200      -2.62935600       1.33574800
H        4.15152200      -3.17621100       2.89026200
H        3.47035700      -3.84587900       1.39343300
H        2.77465500       0.31599700       2.43963400
H        3.82095500      -0.69822800       3.45189400
H        4.33636100      -0.27400300       1.80976400
H        1.11314000      -1.50254900       3.34400000
H        1.14672500      -3.12101500       2.60482300
H        2.33208000      -2.67711700       3.84681600
