89
Properties=species:S:1:pos:R:3 pbc="F F F"
Si       0.07463400       0.89271100       0.69416800
O       -1.21709400       2.14992800       0.06005800
C       -1.06723000       3.29516500      -0.44255800
C       -2.15854100       4.22952800      -0.54811300
H       -0.09588800       3.57624000      -0.85889000
C       -3.42658900       3.96570300       0.01568100
C       -1.92609500       5.43808500      -1.23866200
C       -4.44308800       4.90189400      -0.11886300
H       -3.58729900       3.03871900       0.55479800
C       -2.95203000       6.36844100      -1.37274200
H       -0.94290900       5.63177300      -1.65963100
C       -4.20771300       6.09989000      -0.81316300
H       -5.42005100       4.71034900       0.31466700
H       -2.77948800       7.29884500      -1.90488000
H       -5.00810200       6.82784100      -0.91350000
C        0.35309500       4.66543700       1.93704800
C        0.50256100       3.36781400       2.08888200
H        1.15708900       5.28397100       1.53904300
H       -0.56812200       5.16599200       2.23252600
C        0.59457000       2.07222600       2.13189000
H        0.95422700       1.57431000       3.03200800
Cl      -1.57152000       0.02662300       2.03896300
Cl       1.64232900       1.65161200      -0.78406900
O       -0.46670800      -0.15978600      -0.74958000
O        1.18805100      -0.47510400       1.32886200
C       -0.02591600      -2.34878800      -0.21991800
C        1.41128700      -2.03377900      -0.35427700
C        3.37462300      -0.94092400       0.55151800
C       -2.30251800      -1.66496000      -0.70503100
C       -2.73446500      -2.90405600      -0.16097200
C       -0.43523800      -3.62427000       0.11982200
C       -1.79725000      -3.87121200       0.21534100
C        2.17083000      -2.69507500      -1.30361100
C        3.50305500      -2.33768700      -1.44685300
C        4.10177600      -1.43364100      -0.56328400
H        0.30642100      -4.37440100       0.36568700
H       -2.15300900      -4.82279700       0.59629400
H        1.69230500      -3.41102200      -1.96064600
H        4.09176200      -2.73846600      -2.26530600
C        5.45898200      -0.95322400      -0.91813500
C        4.00767500      -0.37026200       1.84622600
N       -0.95737400      -1.40498200      -0.54583500
N        2.01002800      -1.14665100       0.49317900
C       -3.18380400      -0.72309100      -1.56990500
C       -4.15613100      -3.21690400       0.13091900
C       -4.85954400      -2.41443000       1.04106300
C       -4.77204700      -4.35545000      -0.41043000
C       -6.80110300      -3.84279500       0.80836900
C       -6.09274600      -4.65973600      -0.08057100
C       -6.17857000      -2.72708900       1.37628200
H       -4.36239100      -1.56304400       1.49454200
H       -6.71611600      -2.10231700       2.08417600
H       -7.82986200      -4.08116600       1.06390100
H       -6.57042800      -5.53208100      -0.51790700
H       -4.22481100      -4.97968800      -1.11120800
C        6.51829500      -1.84853100      -1.12606300
C        5.65713500       0.41903500      -1.13769000
C        7.97308700      -0.00041000      -1.70493000
C        6.91064800       0.89184200      -1.52865000
C        7.77265300      -1.37151600      -1.50789300
H        6.36389900      -2.91103100      -0.95969100
H        8.59415200      -2.06836600      -1.64919500
H        8.95065500       0.36903400      -2.00216000
H        7.05587500       1.95509400      -1.69826800
H        4.82495100       1.10466700      -1.01358500
C       -2.35635600      -0.02398500      -2.68945300
C       -4.25931400      -1.56286700      -2.31563100
C       -3.90695400       0.35616600      -0.73568100
H       -3.06561600       0.34875600      -3.43449500
H       -1.77967000       0.81916300      -2.31764000
H       -1.67751800      -0.72680000      -3.18482100
H       -4.74068200      -0.90138900      -3.04217800
H       -3.80990700      -2.40286600      -2.85692100
H       -5.03445100      -1.94159800      -1.65228400
H       -4.40754400       1.03957200      -1.43155100
H       -4.66474200      -0.08906600      -0.08753300
H       -3.20283200       0.91870800      -0.12668800
C        3.96423500       1.17011800       1.90562500
C        3.29512000      -0.97177800       3.09577100
C        5.48921300      -0.81553300       1.98233400
H        6.15776200      -0.28567600       1.30583600
H        5.80209500      -0.58201300       3.00473000
H        5.60278600      -1.89310800       1.82500200
H        2.95123100       1.55433500       1.80445100
H        4.37069000       1.48251200       2.87465700
H        4.58359200       1.60267100       1.11540200
H        2.27967000      -0.60637900       3.22717900
H        3.27640600      -2.06650700       3.03991900
H        3.88105500      -0.68569700       3.97434600
