89
Properties=species:S:1:pos:R:3 pbc="F F F"
Si       0.12713400       0.94896500       0.66129600
O       -1.12492100       2.17458500      -0.15539000
C       -1.86532300       2.98075600       0.46239300
C       -2.71808400       3.91701200      -0.21554700
H       -1.88651300       2.95624200       1.55684000
C       -2.77132300       3.99418300      -1.62618400
C       -3.52633000       4.76250100       0.57545200
C       -3.62545700       4.90697900      -2.22761900
H       -2.14468500       3.33711100      -2.21983100
C       -4.37919900       5.67524700      -0.03719200
H       -3.47384800       4.69120500       1.65876900
C       -4.42783000       5.74551300      -1.43501700
H       -3.67578600       4.97524600      -3.31001100
H       -5.00355800       6.32885900       0.56382600
H       -5.09451500       6.45744600      -1.91382500
C        0.67246900       4.73986300       1.86617300
C        0.66251400       3.43658800       2.01978800
H       -0.21419000       5.34241400       2.06166500
H        1.57475400       5.26284900       1.55044600
C        0.61979400       2.13628600       2.09684100
H        0.85364700       1.64529600       3.04184500
Cl      -1.55224200       0.10646800       2.02235400
Cl       1.62522000       1.73985000      -0.82256900
O       -0.40485300      -0.15711000      -0.75321500
O        1.24680600      -0.39447900       1.32454200
C        0.06019700      -2.32455000      -0.17230700
C        1.49065200      -1.98900000      -0.32297600
C        3.43732900      -0.83316700       0.53882200
C       -2.22519600      -1.67933200      -0.66819100
C       -2.64071200      -2.91018800      -0.09273300
C       -0.33195800      -3.59620500       0.19923700
C       -1.69093500      -3.85628800       0.30525500
C        2.25598500      -2.65634600      -1.26335000
C        3.57800000      -2.27165300      -1.42901000
C        4.16440900      -1.33382600      -0.57272200
H        0.41898300      -4.33197300       0.45994000
H       -2.03446100      -4.80234800       0.71038000
H        1.78706500      -3.39775600      -1.89862500
H        4.16763100      -2.67768200      -2.24424400
C        5.50734100      -0.83187600      -0.95090400
C        4.07068800      -0.22784200       1.81735400
N       -0.88303400      -1.39924600      -0.51715300
N        2.07699400      -1.06888400       0.49706900
C       -3.12085300      -0.77384400      -1.55849200
C       -4.05779300      -3.23635600       0.20881800
C       -4.77085000      -2.42576600       1.10401500
C       -4.65587100      -4.39894500      -0.30113700
C       -6.68621100      -3.89615400       0.91949800
C       -5.96820500      -4.72043100       0.04511800
C       -6.08166200      -2.75530400       1.45564200
H       -4.28668200      -1.55540400       1.53496900
H       -6.62634200      -2.12416700       2.15236800
H       -7.70825800      -4.14821000       1.18849500
H       -6.43162100      -5.61230500      -0.36744700
H       -4.10096700      -5.02989200      -0.98981800
C        6.58273500      -1.70916200      -1.15368800
C        5.67538500       0.53995800      -1.19688700
C        7.99340900       0.15708500      -1.78131800
C        6.91487500       1.03074300      -1.60971000
C        7.82302900      -1.21397900      -1.55744000
H        6.45195000      -2.77131300      -0.96609100
H        8.65710900      -1.89653300      -1.69482000
H        8.96007100       0.54070300      -2.09575800
H        7.03637300       2.09342400      -1.80020800
H        4.83093100       1.21106700      -1.07642800
C       -2.30558900      -0.04771500      -2.66873800
C       -4.14461200      -1.66640400      -2.31715800
C       -3.90911800       0.27948200      -0.74980500
H       -3.02242100       0.30019800      -3.41893300
H       -1.76031600       0.81381000      -2.29204800
H       -1.60104000      -0.72867800      -3.15837800
H       -4.64685500      -1.03100800      -3.05286900
H       -3.64622400      -2.48460800      -2.84896300
H       -4.90932400      -2.08019300      -1.66248900
H       -4.39322200       0.95988200      -1.45938800
H       -4.68375900      -0.18991600      -0.14012500
H       -3.24953100       0.85008700      -0.10085900
C        3.99513700       1.31159900       1.85487200
C        3.38100100      -0.82446600       3.08186600
C        5.56225100      -0.64004900       1.94581200
H        6.21215500      -0.10706400       1.25378500
H        5.88010900      -0.38291500       2.96100700
H        5.69742500      -1.71739900       1.80492500
H        2.97160800       1.67121200       1.77114100
H        4.41451300       1.64654100       2.81089600
H        4.58885900       1.74602500       1.04611300
H        2.36028200      -0.47520300       3.21719300
H        3.38234600      -1.92001200       3.04138900
H        3.96930400      -0.51472100       3.95078400
