69
Properties=species:S:1:pos:R:3 pbc="F F F"
Si      -0.52482000       1.57715400       0.88333200
O        1.07348200       1.37675800      -0.18860100
C        2.11697500       2.07649300      -0.22307200
C        3.18043200       1.79069100      -1.15266800
H        2.26110600       2.86886100       0.51648700
C        3.06353000       0.76868600      -2.12146800
C        4.38801600       2.50697500      -1.01728600
C        4.14751700       0.47058000      -2.93483000
H        2.12947800       0.22371600      -2.21239000
C        5.47170600       2.19661300      -1.83374500
H        4.46460900       3.28811500      -0.26566300
C        5.35047400       1.18015300      -2.78907500
H        4.07011300      -0.31583300      -3.67935400
H        6.40667000       2.73808700      -1.72912800
H        6.19749900       0.93555300      -3.42382700
C        0.72905500       4.58821100      -1.42239300
C       -0.19009800       3.91490900      -0.76488000
H        1.29379000       5.38721900      -0.94309100
H        0.92870400       4.39253600      -2.47536300
C       -1.01660500       3.17470200      -0.08618600
H       -2.07453400       3.43173100      -0.03518800
Cl       0.57154500       2.61193400       2.53122800
Cl      -2.40141700       1.42044900       2.07736500
O       -1.26139400       0.55237100      -0.58823600
O       -0.01810900      -0.10946800       1.62022300
C       -1.57697800      -1.68082200      -0.01581400
C       -0.12051200      -1.84672600       0.07053000
C        1.98570700      -1.16399100       1.01005500
C       -3.44317400      -0.26091800      -0.54811500
C       -4.34295200      -1.33132500      -0.33006000
C       -2.43962100      -2.76049300       0.14794200
C       -3.80895800      -2.58240800       0.00836800
C        0.52108900      -2.86832300      -0.62499700
C        1.89813300      -3.00988000      -0.54372900
C        2.66495900      -2.15363100       0.25912400
H       -2.02185400      -3.72264800       0.41927700
H       -4.48258600      -3.41410800       0.18244100
H       -0.07339300      -3.51418600      -1.25984500
H        2.39736800      -3.77594500      -1.12662700
C        4.13371200      -2.30612700       0.31059200
C        2.62033200      -0.32869400       1.95199400
N       -2.09409800      -0.46598900      -0.35437800
N        0.61903400      -1.02563900       0.86752400
C       -3.82787000       1.00693900      -1.03806800
C       -5.80387300      -1.15624300      -0.45780400
C       -6.45686400      -0.06195900       0.13587200
C       -6.56283300      -2.12477300      -1.13914900
C       -8.59069100      -0.89886500      -0.64659400
C       -7.94758200      -1.99056500      -1.23962800
C       -7.84296500       0.06013800       0.04538600
H       -5.88148500       0.67572500       0.68487300
H       -8.33971800       0.90201800       0.51919700
H       -9.66989100      -0.79740600      -0.72086500
H       -8.52305300      -2.73601300      -1.78106900
H       -6.06350200      -2.96842700      -1.60737200
C        4.69260900      -3.59395400       0.40335000
C        4.98718900      -1.19381800       0.21036800
C        6.91911100      -2.64998700       0.30636500
C        6.36994500      -1.36774200       0.20081600
C        6.07704700      -3.76233000       0.41048700
H        4.04050900      -4.45808500       0.49303900
H        6.49739700      -4.75999000       0.49884200
H        7.99748600      -2.78233400       0.30546500
H        7.01773100      -0.50110600       0.10493000
H        4.56990100      -0.19918900       0.11278500
C       -4.17870200       2.06215600      -1.51406600
H       -4.49268600       3.00126100      -1.91676300
C        3.18367600       0.35884800       2.77172500
H        3.67366000       0.97876400       3.49130000
