69
Properties=species:S:1:pos:R:3 pbc="F F F"
Si       0.11101200       1.05328200       0.61794200
O       -1.24308900       2.09543900      -0.20183800
C       -2.09562800       2.80846400       0.38956400
C       -2.97965900       3.68950400      -0.32472400
H       -2.20177400       2.73024700       1.47536600
C       -2.90926000       3.83979700      -1.72842100
C       -3.94133200       4.40510700       0.42063200
C       -3.79199900       4.69897800      -2.36799700
H       -2.16336500       3.28356900      -2.28674200
C       -4.82288900       5.26277200      -0.22974900
H       -3.98292300       4.27893400       1.49929500
C       -4.74630300       5.40938800      -1.62059200
H       -3.74529800       4.82461600      -3.44547100
H       -5.56479800       5.81657800       0.33705300
H       -5.43273900       6.08138400      -2.12833400
C       -0.13271700       4.88327400       1.80072600
C        0.29626400       3.64271800       1.87503300
H       -1.02728700       5.20695000       2.33212600
H        0.40581400       5.63392000       1.22290600
C        0.66896100       2.39549100       1.87929100
H        1.36459500       2.03913100       2.63961500
Cl      -1.38490300       0.18674000       2.14125500
Cl       1.49675200       1.79848300      -1.01425200
O       -0.38641300      -0.22232000      -0.68423300
O        1.33038500      -0.19839300       1.30446800
C        0.28092000      -2.35745100      -0.04290100
C        1.68838100      -1.95108400      -0.18281800
C        3.47499000      -0.45985600       0.43413100
C       -2.04734400      -1.82880800      -0.36219100
C       -2.41191500      -3.15841500      -0.04302000
C       -0.05945100      -3.66398800       0.29201400
C       -1.39189000      -4.05290000       0.30902400
C        2.57649500      -2.70093400      -0.94798400
C        3.90451600      -2.31043300      -1.05477800
C        4.38212100      -1.17784200      -0.38156100
H        0.73296200      -4.36159800       0.53482900
H       -1.65237600      -5.07332700       0.56750600
H        2.20099200      -3.56494400      -1.48303500
H        4.58314800      -2.87346700      -1.68581600
C        5.79351200      -0.76750400      -0.52267300
C        3.84582000       0.60965900       1.27869100
N       -0.71663600      -1.47459200      -0.33235800
N        2.15883900      -0.86044200       0.48435100
C       -2.97146800      -0.81911600      -0.71298100
C       -3.81855200      -3.61332400      -0.05555900
C       -4.30424600      -4.36382600       1.03028700
C       -4.66547000      -3.35285100      -1.14627400
C       -6.45687900      -4.56639100      -0.05704500
C       -5.97468000      -3.83372900      -1.14700800
C       -5.61930200      -4.82900400       1.03201600
H       -3.65707500      -4.55966800       1.88063000
H       -5.98927900      -5.39339400       1.88321100
H       -7.47974600      -4.93273500      -0.05751200
H       -6.61750700      -3.63892100      -2.00081400
H       -4.29307500      -2.79439600      -1.99801400
C        6.80743800      -1.74065400      -0.46451100
C        6.13856100       0.57378400      -0.76378000
C        8.47972000      -0.03806600      -0.86678800
C        7.47444600       0.93234200      -0.94072400
C        8.14345300      -1.37462000      -0.62688400
H        6.54795100      -2.77744000      -0.26899700
H        8.92047200      -2.13109300      -0.56407900
H        9.52031100       0.24557400      -0.99788400
H        7.72993100       1.96912700      -1.14024500
H        5.36016200       1.32611700      -0.83400700
C       -3.79839100       0.00501900      -1.02826600
H       -4.52706900       0.73786600      -1.30083200
C        4.20027800       1.48790100       2.03095700
H        4.51087600       2.27925400       2.67904900
