69
Properties=species:S:1:pos:R:3 pbc="F F F"
Si       0.07064300       1.01179800       0.65299800
O       -1.36497600       2.05012700       0.01030800
C       -1.35295600       3.20489300      -0.49524300
C       -2.56233900       3.97224400      -0.64802100
H       -0.41674200       3.61599500      -0.88312600
C       -3.79584400       3.52554700      -0.12421500
C       -2.48829300       5.19510900      -1.34774300
C       -4.93645100       4.29539900      -0.30866500
H       -3.83090000       2.59205100       0.42778500
C       -3.63755200       5.95798700      -1.53172100
H       -1.53130000       5.52967900      -1.73952400
C       -4.85841000       5.50815600      -1.01317900
H       -5.88846300       3.96361100       0.09473200
H       -3.58802100       6.89820100      -2.07226700
H       -5.75492000       6.10572100      -1.15375200
C       -0.19549800       4.80963400       1.84267900
C        0.26469600       3.57973700       1.92780500
H        0.32165400       5.56734000       1.25461100
H       -1.09316900       5.11600200       2.37859600
C        0.65460000       2.34002900       1.92162100
H        1.35711000       1.97690700       2.67182100
Cl      -1.40346700       0.12673100       2.15177500
Cl       1.48116300       1.76817200      -0.98865400
O       -0.42287600      -0.22634900      -0.68282300
O        1.30084200      -0.24841800       1.30854700
C        0.22543100      -2.37671400      -0.06615100
C        1.63783500      -1.98468000      -0.20097700
C        3.44203500      -0.52412300       0.43702500
C       -2.09625000      -1.82894400      -0.39854100
C       -2.47350900      -3.15583500      -0.08187100
C       -0.12717900      -3.68148200       0.26172800
C       -1.46322600      -4.05895900       0.27436300
C        2.51815200      -2.73794400      -0.97168300
C        3.85224500      -2.36570100      -1.06821900
C        4.34290100      -1.24700800      -0.38115300
H        0.65859700      -4.38694800       0.50331600
H       -1.73344200      -5.07738500       0.53080100
H        2.13291900      -3.59125800      -1.51690400
H        4.52571700      -2.93252300      -1.70138300
C        5.76164200      -0.85753100      -0.50855500
C        3.82262800       0.53399200       1.29173400
N       -0.76379900      -1.48374500      -0.35395400
N        2.12067500      -0.90822800       0.47978100
C       -3.00807800      -0.81553900      -0.76723600
C       -3.88425900      -3.59809100      -0.09969500
C       -4.38197000      -4.33664700       0.98883000
C       -4.72333700      -3.33691800      -1.19616800
C       -6.53118200      -4.52651200      -0.10749500
C       -6.03694200      -3.80580500      -1.20001300
C       -5.70134200      -4.78949800       0.98737400
H       -3.74056500      -4.53240000       1.84356200
H       -6.08070500      -5.34436900       1.84070100
H       -7.55748200      -4.88312900      -0.11035600
H       -6.67389800      -3.61075200      -2.05815900
H       -4.34181400      -2.78711900      -2.04948300
C        6.75930300      -1.84735400      -0.45097400
C        6.13068600       0.48030500      -0.73263800
C        8.46273700      -0.16803700      -0.81861400
C        7.47388200       0.81906200      -0.89262700
C        8.10257500      -1.50138400      -0.59629300
H        6.48137600      -2.88164900      -0.26836000
H        8.86657200      -2.27100900      -0.53351000
H        9.50905400       0.10010900      -0.93597800
H        7.74802300       1.85360000      -1.07864100
H        5.36544900       1.24607000      -0.80226700
C       -3.81704300       0.01366900      -1.11402900
H       -4.53033500       0.75012300      -1.41533100
C        4.18397400       1.40250400       2.05199300
H        4.50141000       2.18419100       2.70845800
