69
Properties=species:S:1:pos:R:3 pbc="F F F"
Si       0.09116500       0.98115800       0.85353200
O       -1.30523600       2.16475400       0.30866200
C       -1.44620500       3.39272500       0.53850100
C       -2.37858000       4.20593600      -0.20180500
H       -0.87275300       3.85814000       1.34626100
C       -3.07704300       3.70533600      -1.32248500
C       -2.57065400       5.53890800       0.21732800
C       -3.95816800       4.53252200      -2.00597000
H       -2.90283200       2.68298900      -1.64125000
C       -3.46136300       6.35932100      -0.46930300
H       -2.01991500       5.91334500       1.07630400
C       -4.15232400       5.85656500      -1.57864900
H       -4.49518400       4.15937900      -2.87299800
H       -3.61671000       7.38502800      -0.14926100
H       -4.84326300       6.49869800      -2.11793800
C        1.11112700       4.27964700      -1.10415600
C        1.22157000       2.99513500      -0.85247300
H        1.71069200       5.01250000      -0.56524600
H        0.43845300       4.64772800      -1.87742700
C        1.23600400       1.73678500      -0.52375200
H        1.90410700       1.06547800      -1.06250400
Cl      -1.38992400       0.06905800       2.27220500
Cl       0.87127400       2.29623500       2.49236500
O       -0.54153500      -0.15405600      -0.58169500
O        1.26231700      -0.41762200       1.35088500
C        0.05201700      -2.36482200      -0.18736400
C        1.46890900      -1.99792100      -0.35035700
C        3.36560100      -0.69778600       0.36945200
C       -2.25919100      -1.72442500      -0.35850900
C       -2.66255800      -3.06630300      -0.15257900
C       -0.32339800      -3.68461400       0.03590700
C       -1.66829300      -4.02748400       0.06922500
C        2.27847500      -2.68031500      -1.25274500
C        3.62989700      -2.37645600      -1.34684800
C        4.20778000      -1.39560700      -0.53001900
H        0.45051200      -4.42908000       0.17956300
H       -1.95970400      -5.05797800       0.23898800
H        1.83138300      -3.44687400      -1.87417200
H        4.25839100      -2.91794300      -2.04489600
C        5.65412100      -1.10849600      -0.63352600
C        3.80089000       0.34620800       1.21150000
N       -0.91589100      -1.41932300      -0.35534200
N        2.02462600      -1.02359200       0.42561000
C       -3.16502300      -0.65886300      -0.55809400
C       -4.08556300      -3.46889600      -0.14918700
C       -4.56029700      -4.29733000       0.88336800
C       -4.95957900      -3.08426100      -1.18000700
C       -6.75517700      -4.33062200      -0.13590600
C       -6.28448900      -3.51978900      -1.17435400
C       -5.89062200      -4.71713600       0.89345600
H       -3.89128600      -4.59097200       1.68749700
H       -6.25119100      -5.34305300       1.70474000
H       -7.79004800      -4.66151400      -0.13033200
H       -6.94898800      -3.22829100      -1.98286200
H       -4.59648700      -2.46400600      -1.99218000
C        6.46628000      -1.01169200       0.50922500
C        6.23767000      -0.97769000      -1.90676600
C        8.40813600      -0.64146700      -0.89068700
C        7.60561700      -0.73619100      -2.03242400
C        7.83628500      -0.78602400       0.37794000
H        6.02932800      -1.13415200       1.49422600
H        8.45784200      -0.72635400       1.26680800
H        9.47450700      -0.45819800      -0.98908300
H        8.04335900      -0.62036500      -3.01979800
H        5.61383900      -1.04230100      -2.79398000
C       -3.99842400       0.20132900      -0.72527900
H       -4.73455700       0.96365600      -0.86214800
C        4.18493500       1.25188500       1.91446600
H        4.51552000       2.05508600       2.53709700
