69
Properties=species:S:1:pos:R:3 pbc="F F F"
Si       0.13417300       1.14902600       0.60769000
O       -1.21930900       2.20599000      -0.21366100
C       -1.98111700       3.03717900       0.34455700
C       -3.06347900       3.67282800      -0.36166800
H       -1.79763000       3.32091100       1.38522700
C       -3.31663900       3.41087400      -1.72670200
C       -3.87405400       4.58210800       0.34970600
C       -4.37623100       4.04641200      -2.36000500
H       -2.67449300       2.72031200      -2.26329600
C       -4.93454100       5.21393100      -0.29295200
H       -3.66477200       4.77777500       1.39800100
C       -5.18509900       4.94448000      -1.64420600
H       -4.57795200       3.85420400      -3.40948900
H       -5.56362200       5.91288200       0.24943900
H       -6.01191100       5.43895300      -2.14662500
C       -3.63509200       1.02247800       2.11027900
C       -2.37749400       0.65607100       2.00844000
H       -3.93467200       1.83848900       2.76678200
H       -4.41628600       0.50503500       1.55558900
C       -1.12189300       0.34901500       1.85674000
H       -0.69435000      -0.40834100       2.51630700
Cl       1.50065200       2.00639300      -0.94146900
Cl       0.73712000       2.71771100       2.10004400
O        1.43605500      -0.05976900       1.26887600
O       -0.25786300      -0.12847200      -0.78804000
C        1.83135900      -1.78032700      -0.24624100
C        0.43585900      -2.22840400      -0.09261800
C       -1.89986000      -1.75663000      -0.43287600
C        3.59830300      -0.28585700       0.41869000
C        4.52029500      -0.99116500      -0.39283700
C        2.72056300      -2.48220600      -1.05095400
C        4.04766900      -2.08088600      -1.13471900
C        0.12580800      -3.52816500       0.28636800
C       -1.20090800      -3.94151900       0.32393800
C       -2.23761800      -3.07958900      -0.05566000
H        2.35465400      -3.33668100      -1.60769200
H        4.73951100      -2.63078000      -1.76298700
H        0.93259200      -4.20200200       0.54863900
H       -1.44153700      -4.95641600       0.62065800
C       -3.63709000      -3.55735200      -0.03801600
C       -2.84258800      -0.78518300      -0.83402400
N        2.28352700      -0.69946100       0.45209500
N       -0.57665500      -1.37391900      -0.41652400
C        3.93867100       0.83148000       1.21001600
C        5.94402800      -0.60185900      -0.48631200
C        6.54402200      -0.51169800      -1.75513200
C        6.72085300      -0.36712200       0.66051600
C        8.66038900       0.05616800      -0.72815000
C        8.07281500      -0.04648600       0.53728800
C        7.89262400      -0.17560700      -1.87406300
H        5.94551900      -0.68256500      -2.64561500
H        8.34179900      -0.09253000      -2.85963700
H        9.71178300       0.31408400      -0.82055100
H        8.66818800       0.12074500       1.43044300
H        6.27229400      -0.45510500       1.64386900
C       -4.49438300      -3.36326200      -1.13413600
C       -4.10464900      -4.26075900       1.08641800
C       -6.26111300      -4.54728600       0.02587800
C       -5.41270300      -4.74440300       1.12031700
C       -5.79649400      -3.86233400      -1.10211600
H       -4.13478800      -2.84174700      -2.01440000
H       -6.44738400      -3.71914000      -1.96004500
H       -7.27841300      -4.92796700       0.05063200
H       -5.76859600      -5.27245700       2.00037000
H       -3.44862300      -4.40664400       1.93999200
C        4.26260800       1.77859800       1.88827800
H        4.53700900       2.62469700       2.48075200
C       -3.68894200       0.00460100      -1.18401400
H       -4.43129600       0.71107700      -1.48635700
