69
Properties=species:S:1:pos:R:3 pbc="F F F"
Si       0.14655900       1.09523000       0.88106800
O       -1.22927400       2.33462600       0.38486300
C       -1.59669400       2.66959300      -0.76702100
C       -2.74198100       3.50716000      -0.99415100
H       -1.03003900       2.31584200      -1.63507300
C       -3.54579600       3.97115000       0.07280100
C       -3.06595300       3.83697400      -2.32855100
C       -4.65860500       4.75280500      -0.20305000
H       -3.28533500       3.70024500       1.09045700
C       -4.18334400       4.62241700      -2.59390300
H       -2.43960800       3.47076000      -3.13783500
C       -4.97664700       5.07739500      -1.53288000
H       -5.28527200       5.11390300       0.60670900
H       -4.43922000       4.88159400      -3.61648000
H       -5.85017400       5.68945800      -1.74019500
C       -3.60226400       0.87529900       2.43668900
C       -2.35798500       0.51204800       2.23990000
H       -4.40957100       0.48199200       1.82014300
H       -3.86629000       1.58619000       3.21882500
C       -1.11425100       0.17996300       2.02679500
H       -0.71876500      -0.68596800       2.56153300
Cl       1.53651000       2.07198000      -0.61090300
Cl       0.82096700       2.46559300       2.49562700
O        1.40834500      -0.24668300       1.32523500
O       -0.33035100       0.02430100      -0.67824200
C        1.74147400      -1.72452300      -0.44335400
C        0.34061900      -2.16673800      -0.33478000
C       -1.99434700      -1.60056700      -0.43912000
C        3.55823600      -0.40691300       0.42999700
C        4.45317700      -1.00158800      -0.49250800
C        2.60394500      -2.31204700      -1.36120000
C        3.94210800      -1.94231800      -1.39525800
C        0.01418600      -3.50944800      -0.18336300
C       -1.31871100      -3.89509300      -0.10648800
C       -2.34938100      -2.95293000      -0.21249300
H        2.20807500      -3.05537900      -2.04249700
H        4.61253200      -2.40453100      -2.11147400
H        0.81557000      -4.23205500      -0.08634500
H       -1.57153000      -4.93613500       0.06189900
C       -3.75936800      -3.37181200      -0.08724800
C       -2.92919900      -0.58592000      -0.74324100
N        2.23105600      -0.78049300       0.41259400
N       -0.66335500      -1.25253900      -0.46037000
C        3.93839000       0.56398500       1.38027000
C        5.88831100      -0.64718900      -0.53463300
C        6.48729000      -0.37298700      -1.77717000
C        6.67554800      -0.62455800       0.62895500
C        8.62384200      -0.04447800      -0.68912700
C        8.03677600      -0.33116200       0.54799400
C        7.84571800      -0.06464800      -1.85127900
H        5.88117300      -0.37910500      -2.67883300
H        8.29452600       0.16188100      -2.81424200
H        9.68268900       0.19202200      -0.74712300
H        8.63974300      -0.32891400       1.45162700
H        6.22689100      -0.85534300       1.58895000
C       -4.20809500      -4.52371600      -0.75674100
C       -4.64785300      -2.66419100       0.74092300
C       -6.40893600      -4.23902600       0.20975800
C       -5.96322500      -3.10132800       0.89179000
C       -5.52933700      -4.94836600      -0.61505700
H       -3.52630700      -5.07049300      -1.40220600
H       -5.87152900      -5.83076300      -1.14820400
H       -7.43618500      -4.57385200       0.32399700
H       -6.63865000      -2.55753600       1.54618900
H       -4.29802900      -1.79169200       1.28271800
C        4.29493600       1.38983100       2.18813700
H        4.59803900       2.12851800       2.89853200
C       -3.77048200       0.22286700      -1.06228500
H       -4.51793300       0.94101900      -1.32137300
