75
Properties=species:S:1:pos:R:3 pbc="F F F"
Si      -0.00013600       1.22604500       0.63683200
O       -1.37337300       2.22613500      -0.20067700
C       -2.38609900       2.75332600       0.33089300
C       -3.25574600       3.63678400      -0.40167500
H       -2.65310600       2.49250700       1.35843800
C       -2.99255700       4.00139500      -1.74116600
C       -4.40858900       4.11993100       0.25339600
C       -3.87657200       4.83946700      -2.40733900
H       -2.10174500       3.62182600      -2.23109700
C       -5.28964500       4.95816600      -0.42295100
H       -4.59774300       3.83245600       1.28434900
C       -5.02274600       5.31682000      -1.75034300
H       -3.68346400       5.12681700      -3.43648800
H       -6.17814600       5.33324000       0.07544400
H       -5.70970100       5.97232300      -2.27856500
C       -0.94910400       4.78477400       2.19981000
C       -0.20456300       3.70655400       2.08236300
H       -1.75741400       4.83756300       2.92867200
H       -0.76466100       5.66845800       1.58963000
C        0.46800200       2.60999800       1.89170800
H        1.39135900       2.42645300       2.44166700
Cl      -1.47506600       0.25681100       2.11547600
Cl       1.41060200       2.06502800      -0.93736300
O       -0.39480400      -0.04392100      -0.70889500
O        1.26539000       0.02866500       1.35279600
C        0.33261100      -2.12881000       0.01196700
C        1.71535500      -1.64433100      -0.19739900
C        3.42867500      -0.09951100       0.50967900
C       -2.00649200      -1.69742400      -0.40041900
C       -2.32993100      -3.01157200       0.01200800
C        0.04201600      -3.40909400       0.49164300
C       -1.29598400      -3.81691300       0.49101900
C        2.60378400      -2.27168300      -1.07768600
C        3.90981000      -1.77778800      -1.14736500
C        4.35501700      -0.70913900      -0.36763900
H       -1.53670800      -4.81232400       0.85110600
H        4.60107600      -2.23140600      -1.85026800
C        5.75133800      -0.23762700      -0.47846900
C        3.75159100       0.93135900       1.42043500
N       -0.69378600      -1.30658700      -0.35499400
N        2.14181500      -0.57243600       0.53096100
C       -2.95461200      -0.74047800      -0.82837100
C       -3.71872800      -3.51889200      -0.01159100
C       -4.22605300      -4.19198700       1.11381700
C       -4.52778700      -3.37686200      -1.15138600
C       -6.32537900      -4.55582600      -0.03518000
C       -5.82118300      -3.89911200      -1.16290100
C       -5.52540800      -4.69992700       1.10319400
H       -3.60921900      -4.29405400       2.00224900
H       -5.91311300      -5.20442600       1.98367300
H       -7.33597900      -4.95468800      -0.04409800
H       -6.43420100      -3.79530300      -2.05377800
H       -4.13749500      -2.87614600      -2.03090800
C        6.79861800      -1.17587700      -0.48860600
C        6.04822100       1.12860600      -0.61983300
C        8.41034500       0.60962900      -0.75770300
C        7.37113800       1.54642800      -0.76412100
C        8.12136700      -0.75201900      -0.61910200
H        6.57465800      -2.23272200      -0.37182600
H        8.92465000      -1.48330600      -0.61010700
H        9.44039800       0.93899900      -0.86284000
H        7.58988800       2.60356500      -0.88540100
H        5.24343000       1.85582400      -0.63867200
C       -3.79649700       0.03975800      -1.20956700
H       -4.53689700       0.73506400      -1.54206500
C        4.07672500       1.77514200       2.22393200
H        4.36164900       2.53479000       2.91996000
C        1.10644500      -4.34246100       1.00038000
H        1.27428800      -5.15316200       0.28211900
H        2.05513400      -3.83266500       1.17899300
H        0.76882500      -4.79820700       1.93674400
C        2.19063800      -3.42090700      -1.95703300
H        2.70928300      -3.34994500      -2.91745700
H        2.47750100      -4.37291900      -1.49510600
H        1.11318200      -3.43776200      -2.13588200
