75
Properties=species:S:1:pos:R:3 pbc="F F F"
Si       0.04027800       1.24971500       0.91491700
O       -1.34607600       2.46564200       0.37694500
C       -1.69764500       2.78496100      -0.78364500
C       -2.85816300       3.59452900      -1.03744900
H       -1.10557700       2.43967000      -1.63810100
C       -3.69709800       4.03642000       0.01151700
C       -3.16101900       3.91759300      -2.37825000
C       -4.82293300       4.79027700      -0.28802100
H       -3.45336100       3.76882000       1.03415900
C       -4.29134100       4.67588700      -2.66747400
H       -2.50832700       3.56791500      -3.17392700
C       -5.11911100       5.10956900      -1.62404800
H       -5.47652700       5.13361100       0.50809000
H       -4.53076600       4.93032000      -3.69522400
H       -6.00265300       5.70022300      -1.85016600
C       -3.73243500       1.01574600       2.40418500
C       -2.48526700       0.65259700       2.22635600
H       -4.52881300       0.63129800       1.76820700
H       -4.00955600       1.71917500       3.18857500
C       -1.23808500       0.32268800       2.03176100
H       -0.85076400      -0.54849300       2.56376300
Cl       1.44862800       2.24484600      -0.54723500
Cl       0.64474800       2.64688200       2.53651500
O        1.31237300      -0.06786300       1.41046500
O       -0.38331800       0.16516600      -0.65852300
C        1.69619300      -1.49211600      -0.38740800
C        0.31497500      -1.99282900      -0.20597300
C       -2.03004900      -1.47004900      -0.39806600
C        3.47446900      -0.15301500       0.54445200
C        4.37231900      -0.66335700      -0.42394400
C        2.54140700      -1.97217200      -1.39060900
C        3.86855200      -1.53092100      -1.39196200
C        0.02737800      -3.32471600       0.10381600
C       -1.31855500      -3.69964500       0.17532500
C       -2.36125700      -2.80673500      -0.07436500
H        4.54191300      -1.90195500      -2.15819500
H       -1.56435600      -4.71943700       0.45375900
C       -3.76548400      -3.25670800       0.02384100
C       -2.97382500      -0.48804600      -0.77447800
N        2.16761000      -0.57000500       0.50590300
N       -0.70658200      -1.11184100      -0.41320400
C        3.83085900       0.78294100       1.53859800
C        5.79911900      -0.27390700      -0.44845600
C        6.38682400       0.11355000      -1.66541200
C        6.58908300      -0.32631000       0.71205000
C        8.51959000       0.40112600      -0.55753900
C        7.94319900       0.00334600       0.65364600
C        7.73814600       0.45697800      -1.71627100
H        5.77734200       0.16692900      -2.56332100
H        8.17878700       0.77082800      -2.65834100
H        9.57260000       0.66576300      -0.59808700
H        8.54866000      -0.05193900       1.55395800
H        6.14634200      -0.64050300       1.65132500
C       -4.15655900      -4.45655100      -0.59466000
C       -4.70396000      -2.52798900       0.77364600
C       -6.40163900      -4.17912900       0.26716200
C       -6.01315100      -2.99234300       0.89838000
C       -5.47143200      -4.90952500      -0.47991400
H       -3.43472500      -5.02004000      -1.17958100
H       -5.76905200      -5.83043200      -0.97333600
H       -7.42379100      -4.53547500       0.36049100
H       -6.72828800      -2.43083600       1.49297400
H       -4.39803100      -1.61726600       1.27731800
C        4.17004400       1.57968400       2.38251300
H        4.45759500       2.29317300       3.12432000
C       -3.81916100       0.29365800      -1.14599800
H       -4.56987600       0.98874900      -1.45341200
C        1.10910800      -4.33218400       0.38337700
H        1.32914900      -4.91232500      -0.52082000
H        2.03436200      -3.85739000       0.71785700
H        0.77027200      -5.03233400       1.15232300
C        2.07562600      -2.93533600      -2.44894700
H        2.43974500      -2.60291400      -3.42644000
H        2.49514200      -3.93092400      -2.26360200
H        0.98790600      -3.01805900      -2.48757800
