75
Properties=species:S:1:pos:R:3 pbc="F F F"
Si       0.02655200       1.19487100       1.02746600
O       -1.35729700       2.45845200       0.62202800
C       -1.94083500       2.65363900      -0.47577700
C       -2.82673900       3.77220700      -0.68252200
H       -1.80310000       1.94777900      -1.29509100
C       -3.09424200       4.71233800       0.33663000
C       -3.43364500       3.90516300      -1.94937100
C       -3.95899300       5.76893700       0.08158400
H       -2.62121800       4.59621400       1.30638700
C       -4.29837600       4.96673300      -2.19622700
H       -3.21367600       3.17621400      -2.72526600
C       -4.55963300       5.89629000      -1.18125800
H       -4.17197300       6.49727200       0.85821500
H       -4.76678600       5.07568000      -3.16955400
H       -5.23451600       6.72598500      -1.37304500
C        0.53167700       3.37339200      -2.32750500
C        0.94262100       2.71909900      -1.26405500
H        0.48946000       2.89773400      -3.30675200
H        0.23924200       4.42093700      -2.26400200
C        1.26049200       2.08453800      -0.17316500
H        2.29720500       2.11412800       0.16183200
Cl      -1.47872700       0.18164100       2.34523600
Cl       0.70121600       2.47109100       2.73224800
O       -0.55185300       0.13112700      -0.50473300
O        1.20611000      -0.22429000       1.48685200
C        0.14209800      -2.05265000      -0.21227200
C        1.52009900      -1.54981800      -0.40236600
C        3.35445600      -0.32444500       0.56820700
C       -2.20321600      -1.51190700      -0.30542200
C       -2.53280800      -2.86850200      -0.07375100
C       -0.14316300      -3.40223700       0.01300800
C       -1.48773500      -3.77815000       0.08808200
C        2.32837500      -1.98179700      -1.45885400
C        3.66757300      -1.58379400      -1.46145800
C        4.21894700      -0.80225800      -0.44514100
H       -1.72964300      -4.81514900       0.29807600
H        4.31223900      -1.92194400      -2.26640700
C        5.65874900      -0.46605700      -0.46512700
C        3.75307800       0.54996400       1.60154100
N       -0.87974200      -1.15559700      -0.32995900
N        2.03092600      -0.69272700       0.52967800
C       -3.16229300      -0.50915900      -0.57554400
C       -3.93494000      -3.32980700       0.01201700
C       -4.87310200      -2.65780100       0.81368900
C       -4.32284900      -4.49185300      -0.67756900
C       -6.56165400      -4.28977100       0.21936200
C       -5.63245500      -4.96320000      -0.58042700
C       -6.17709000      -3.14125800       0.91991400
H       -4.57389300      -1.77335100       1.36606900
H       -6.89173000      -2.62356000       1.55348700
H       -7.58002800      -4.66004300       0.29897100
H       -5.92663600      -5.85374000      -1.12863600
H       -3.60188100      -5.01129000      -1.30293700
C        6.45612700      -0.61170700       0.68262400
C        6.25097000      -0.03628300      -1.66586900
C        8.40275000       0.10697700      -0.56696900
C        7.61417200       0.25649900      -1.71255200
C        7.82160100      -0.33276900       0.62730600
H        6.01078500      -0.95975000       1.60860100
H        8.43212100      -0.46085200       1.51666900
H        9.46517300       0.33120100      -0.60469300
H        8.05883600       0.60324900      -2.64103700
H        5.63661100       0.08977700      -2.55309200
C       -4.04200700       0.27391700      -0.85264500
H       -4.82124300       0.97104300      -1.07371400
C        4.10441700       1.31802000       2.46698100
H        4.40796400       1.99665900       3.23485800
C        0.92946200      -4.43802800       0.21574200
H        0.96333900      -5.11724000      -0.64393700
H        1.91830400      -3.99678300       0.35121800
H        0.68776400      -5.03873800       1.09851900
C        1.79668200      -2.85957300      -2.55925400
H        2.31406200      -2.62797100      -3.49470100
H        1.98213800      -3.91520700      -2.32928500
H        0.72166300      -2.72625600      -2.70321600
