67
Properties=species:S:1:pos:R:3 pbc="F F F"
Si       0.55024500       1.78616800      -0.53821800
O       -1.03154100       1.30874600       0.64543800
C       -2.17525400       1.82096200       0.62624300
C       -3.24861200       1.35617800       1.46488300
H       -2.38854500       2.63365500      -0.07879400
C       -3.05608200       0.36095400       2.45053400
C       -4.53199600       1.90164600       1.24548500
C       -4.13879200      -0.07572900       3.19919600
H       -2.06285400      -0.04520100       2.61201200
C       -5.61429400       1.44719000       1.99260300
H       -4.66424500       2.66348800       0.48199100
C       -5.41615200       0.46208600       2.96700800
H       -4.00242500      -0.83489800       3.96333100
H       -6.60566700       1.85441100       1.82139000
H       -6.26028600       0.10841000       3.55236700
C       -1.24786700       5.28433200      -1.46076500
C       -0.87060500       4.04117600      -1.62821600
H       -0.60376600       6.11222900      -1.75434500
H       -2.21478700       5.52853200      -1.02229100
C       -0.49126600       2.80111600      -1.77934200
H       -0.73874900       2.28690500      -2.70806900
Cl       2.37608700       1.79707700      -1.78892800
Cl       1.07884500       3.32945600       0.89119400
O        1.30443100       0.49807500       0.68529200
O       -0.04064700       0.14136600      -1.56760400
C        1.54642900      -1.63695500      -0.21603500
C        0.08461200      -1.77499300      -0.26124000
C       -2.01032500      -1.00512900      -1.10740000
C        3.45413300      -0.35941500       0.45157000
C        4.33062300      -1.40494000       0.09838200
C        2.38575600      -2.68589700      -0.58984800
C        3.75841000      -2.56477100      -0.45362000
C       -0.56761200      -2.84052900       0.36072600
C       -1.94289300      -2.97245200       0.26913400
C       -2.70393400      -2.06246000      -0.48758900
H        1.94039100      -3.59065200      -0.98655000
H        4.40624200      -3.38448900      -0.74230600
H        0.02670900      -3.54876400       0.92577600
H       -2.44402400      -3.79700800       0.76268300
N        2.09697600      -0.49449400       0.27521700
N       -0.64595000      -0.87200500      -0.96817900
C       -4.16773900      -2.20680000      -0.58665500
C       -4.84210800      -2.07185800      -1.81290600
C       -4.90065700      -2.50033400       0.57817800
C       -6.22723400      -2.21858100      -1.86773100
H       -4.28443400      -1.88287300      -2.72402300
C       -6.28686200      -2.62769600       0.52000900
H       -4.38681200      -2.59084600       1.52984900
C       -6.95284600      -2.48802300      -0.70235100
H       -6.73883400      -2.12609700      -2.82110000
H       -6.84664400      -2.83088400       1.42817600
H       -8.03318000      -2.59208600      -0.74762500
C        5.79210500      -1.31550500       0.28074900
C        6.35735300      -0.86512500       1.48650500
C        6.63489500      -1.73418600      -0.76599500
C        7.74299900      -0.82952600       1.63739400
H        5.71844200      -0.57080600       2.31212900
C        8.01934300      -1.68039800      -0.61443300
H        6.20356600      -2.07349200      -1.70347800
C        8.57601400      -1.22976700       0.58751700
H        8.17128300      -0.49253100       2.57674800
H        8.66236200      -1.98735000      -1.43406600
H        9.65518600      -1.19321200       0.70638200
C        3.89785000       0.87310200       1.01528900
C       -2.64934300       0.02065900      -1.86206100
N        4.32038000       1.83870400       1.50051100
N       -3.20461100       0.85645900      -2.44611600
