67
Properties=species:S:1:pos:R:3 pbc="F F F"
Si      -0.49394000       1.54153400       1.20768000
O        1.18208900       1.48538900       0.24743800
C        1.39526900       1.72454300      -0.97104500
C        2.71753800       1.68446100      -1.52884900
H        0.54916500       1.91959100      -1.63689800
C        3.86127100       1.49463700      -0.71837100
C        2.84879600       1.79824000      -2.93062600
C        5.11102000       1.40247500      -1.31189200
H        3.75046200       1.43239500       0.35845200
C        4.10697500       1.69977000      -3.51610100
H        1.96375600       1.95317200      -3.54194500
C        5.23349700       1.49984100      -2.70775400
H        5.99364100       1.25147600      -0.69895500
H        4.21581300       1.78020000      -4.59308100
H        6.21574300       1.42277900      -3.16553800
C        0.56814900       4.83365300      -0.83205200
C       -0.27583100       4.03460400      -0.22090200
H        0.73740000       4.76720300      -1.90628200
H        1.10812600       5.60565100      -0.28504900
C       -1.05400800       3.19209000       0.39827200
H       -2.11555700       3.41738700       0.50318500
Cl       0.59794400       2.35199900       2.91483500
Cl      -2.36139000       1.14760000       2.32906700
O       -1.23245200       0.62662200      -0.42996800
O        0.04248300      -0.28364800       1.71861200
C       -1.48823100      -1.66011500      -0.10598600
C       -0.02517800      -1.78981400      -0.05813300
C        2.04985100      -1.22455900       0.98291800
C       -3.37976000      -0.25272900      -0.49165400
C       -4.26268200      -1.34843400      -0.42869600
C       -2.33278200      -2.76639800      -0.02004300
C       -3.70216700      -2.61102300      -0.16285800
C        0.65156800      -2.64722900      -0.92586800
C        2.02931500      -2.76203900      -0.86460900
C        2.76937000      -2.05806000       0.10292600
H       -1.89474600      -3.74118500       0.16077400
H       -4.35561000      -3.47347400      -0.09882600
H        0.07586600      -3.20012500      -1.65837100
H        2.55107500      -3.41732800      -1.55246000
N       -2.02584100      -0.43178500      -0.33007300
N        0.68454000      -1.08707900       0.86631600
C        4.23933000      -2.18314500       0.14163100
C        4.94229000      -2.37861800       1.34271800
C        4.94777200      -2.12078600      -1.07319600
C        6.33123600      -2.50101900       1.32624400
H        4.40656800      -2.46147000       2.28181700
C        6.33672300      -2.22820800      -1.08110800
H        4.41169900      -1.95381500      -2.00285700
C        7.03141400      -2.41884800       0.11808200
H        6.86532000      -2.66425500       2.25752600
H        6.87613000      -2.15774500      -2.02105700
H        8.11416600      -2.50602500       0.11087100
C       -5.71795500      -1.20307900      -0.61822100
C       -6.24882100      -0.43911000      -1.67237100
C       -6.59101800      -1.87526700       0.25767000
C       -7.62956500      -0.34578500      -1.84155700
H       -5.58601600       0.05642800      -2.37384700
C       -7.97048900      -1.76510800       0.09255200
H       -6.18644500      -2.45696400       1.08096200
C       -8.49252800      -1.00170900      -0.95748700
H       -8.03062300       0.23589900      -2.66627600
H       -8.63702900      -2.27154100       0.78444700
H       -9.56796000      -0.92050500      -1.08756600
C       -3.79708400       1.09240300      -0.71598700
C        2.67490100      -0.47166000       2.01869100
N       -4.16722500       2.17349900      -0.91935200
N        3.25520000       0.09633900       2.84745900
