67
Properties=species:S:1:pos:R:3 pbc="F F F"
Si       0.12726800       1.11006700       1.02886300
O       -1.25422100       2.34713100       0.66900000
C       -1.90921600       2.54973700      -0.39011300
C       -2.77767200       3.68378800      -0.54503400
H       -1.83792000       1.83939500      -1.21384000
C       -2.94204400       4.64841400       0.47486300
C       -3.47985300       3.80893600      -1.76339800
C       -3.79941900       5.72032100       0.26762700
H       -2.39748800       4.53769700       1.40696200
C       -4.33578400       4.88655500      -1.96190400
H       -3.34330500       3.05861300      -2.53743900
C       -4.49421300       5.83966300      -0.94731600
H       -3.93488000       6.46695000       1.04414000
H       -4.87890800       4.98890700      -2.89625500
H       -5.16339900       6.68177200      -1.10122400
C        0.49447100       3.08654000      -2.45746100
C        0.94510300       2.50167300      -1.37171900
H        0.18179500       4.13001000      -2.44298500
H        0.43816600       2.55643400      -3.40742900
C        1.30874400       1.93755400      -0.25569100
H        2.35252200       2.01644500       0.04777000
Cl      -1.30696700       0.05361600       2.36570400
Cl       0.90241600       2.32914600       2.68459400
O       -0.53397900      -0.02044800      -0.50186800
O        1.34752600      -0.35252600       1.40604100
C        0.16628700      -2.21463100      -0.26411100
C        1.56191900      -1.77531600      -0.43023500
C        3.43661100      -0.54359400       0.39280200
C       -2.15987300      -1.67853900      -0.29711300
C       -2.52145100      -3.03453200      -0.17217600
C       -0.15372300      -3.56389500      -0.11511900
C       -1.47734500      -3.96858200      -0.05474900
C        2.37662700      -2.33812500      -1.41333600
C        3.71692800      -2.00049600      -1.49598600
C        4.29415100      -1.11460900      -0.56901700
H        0.65371100      -4.28350100      -0.04870300
H       -1.71868500      -5.01991800       0.05190400
H        1.93617700      -3.04844500      -2.10287400
H        4.34376600      -2.45026700      -2.25739900
N       -0.83817200      -1.30064900      -0.34050500
N        2.10074100      -0.87165200       0.43327200
C        5.73674600      -0.81365300      -0.62554100
C        6.53447600      -0.82680900       0.53226300
C        6.33190500      -0.55388100      -1.87434900
C        7.90295200      -0.57676300       0.43989200
H        6.09412700      -1.06226500       1.49543300
C        7.69759700      -0.28891300      -1.95748100
H        5.71906900      -0.53306700      -2.77091800
C        8.48580700      -0.30112300      -0.80138400
H        8.51413600      -0.60270300       1.33711800
H        8.14550800      -0.07131400      -2.92261200
H        9.55122100      -0.10003000      -0.86828400
C       -3.92733300      -3.47924700      -0.15687800
C       -4.85398700      -3.00453000      -1.10158900
C       -4.33553500      -4.42983600       0.79726300
C       -6.16780600      -3.47052500      -1.08701100
H       -4.54135300      -2.29666900      -1.86204300
C       -5.65436500      -4.88038400       0.81598300
H       -3.62676000      -4.78957200       1.53748600
C       -6.57219100      -4.40341500      -0.12648000
H       -6.87368900      -3.10905000      -1.82893900
H       -5.96596300      -5.60034000       1.56697700
H       -7.59832600      -4.75970000      -0.11375700
C       -3.11109100      -0.61974700      -0.38032900
C        3.87774800       0.40273500       1.36347200
N       -3.92004400       0.20803300      -0.46945100
N        4.28611200       1.17867500       2.12390100
