67
Properties=species:S:1:pos:R:3 pbc="F F F"
Si       0.06741900       1.11078500       0.58598900
O       -1.28719100       2.11228000      -0.22298800
C       -2.31206700       2.63557700       0.29981600
C       -3.10546200       3.60734800      -0.39942400
H       -2.63607200       2.30812700       1.29071100
C       -2.74893700       4.07836900      -1.68339500
C       -4.27162200       4.08572000       0.23666500
C       -3.55401300       5.01696600      -2.31356800
H       -1.84817300       3.70260900      -2.15771800
C       -5.07296400       5.02487200      -0.40401400
H       -4.53162900       3.71574000       1.22490500
C       -4.71317700       5.48932100      -1.67577500
H       -3.28931400       5.38794800      -3.29907600
H       -5.97119900       5.39711800       0.07869800
H       -5.33781200       6.22466800      -2.17550600
C       -0.90798800       4.55223200       2.28494900
C       -0.10036700       3.53571800       2.07716700
H       -1.62796700       4.54369100       3.10269200
H       -0.86226600       5.44571200       1.66339600
C        0.62401400       2.49259600       1.79700500
H        1.61956100       2.37670200       2.22431200
Cl      -1.35177600       0.16288700       2.10901000
Cl       1.45708800       1.83868500      -1.04418700
O       -0.40589500      -0.21233800      -0.71502400
O        1.36432200      -0.12677200       1.26045600
C        0.35076000      -2.32289500      -0.09266700
C        1.74156600      -1.86749000      -0.24625300
C        3.50002600      -0.37656500       0.38739400
C       -1.98575800      -1.87528400      -0.34646100
C       -2.32360600      -3.21026900      -0.05131100
C        0.05080100      -3.64530600       0.23827100
C       -1.26416400      -4.07846400       0.27197100
C        2.64095200      -2.56796700      -1.05169200
C        3.96474300      -2.17037900      -1.13805100
C        4.43924900      -1.07246000      -0.39807900
H        0.86711300      -4.32060800       0.46492600
H       -1.48669300      -5.10978900       0.52013300
H        2.27819000      -3.42434000      -1.60800200
H        4.65697500      -2.72501900      -1.76103900
N       -0.67341600      -1.47165400      -0.36052800
N        2.19029000      -0.78654700       0.44661200
C        5.85902700      -0.68169400      -0.46691800
C        6.59632300      -0.38927700       0.69392100
C        6.49579400      -0.64064000      -1.72148100
C        7.94667700      -0.05583100       0.59786300
H        6.12534300      -0.45272500       1.66911400
C        7.84189700      -0.29133100      -1.81181000
H        5.92753500      -0.85415500      -2.62214800
C        8.57007400       0.00005500      -0.65298600
H        8.51234700       0.15514900       1.50054400
H        8.32115600      -0.24375800      -2.78518900
H        9.62063200       0.26703500      -0.72447400
C       -3.71490000      -3.69684100      -0.06094300
C       -4.60009400      -3.36576800      -1.10260600
C       -4.15224400      -4.54174600       0.97690200
C       -5.90110200      -3.86641800      -1.09968200
H       -4.26495100      -2.74554700      -1.92700600
C       -5.45880000      -5.02634100       0.98170000
H       -3.47703600      -4.79221600       1.78997700
C       -6.33514700      -4.69084000      -0.05638400
H       -6.57351900      -3.61673700      -1.91507200
H       -5.79347800      -5.66245400       1.79577400
H       -7.35175900      -5.07368900      -0.05396100
C       -2.94500900      -0.85709500      -0.62737900
C        3.81920100       0.77699000       1.16328100
N       -3.75316300      -0.05673700      -0.85816300
N        4.11870000       1.70126600       1.79814300
