73
Properties=species:S:1:pos:R:3 pbc="F F F"
Si       0.04998400       1.29228800       1.11825000
O       -1.38600500       2.51560500       0.69693900
C       -1.68373900       2.92464900      -0.45502900
C       -2.77418500       3.82405800      -0.69891600
H       -1.08700200       2.58878300      -1.31123900
C       -3.60126300       4.29573300       0.34656600
C       -3.01372400       4.22150600      -2.03279900
C       -4.65149500       5.15234600       0.05059100
H       -3.40620400       3.97674600       1.36515700
C       -4.06902400       5.08123000      -2.31888500
H       -2.37128000       3.84807400      -2.82593400
C       -4.88511200       5.54376700      -1.27876700
H       -5.29516700       5.51962100       0.84396300
H       -4.26055500       5.39107400      -3.34146200
H       -5.71081500       6.21378400      -1.50221400
C        2.21278300       1.37317500      -2.40336100
C        1.71936100       1.77694400      -1.25856600
H        1.67988500       1.53765400      -3.33864300
H        3.17961600       0.87692500      -2.45737000
C        1.23789100       2.18537600      -0.11497900
H        1.51463800       3.18932400       0.21329800
Cl      -1.47302400       0.24910500       2.38315000
Cl       0.67117700       2.55366700       2.81435300
O       -0.51171800       0.18556600      -0.43787700
O        1.24395700      -0.12689100       1.59612700
C        0.08015500      -2.01023500       0.01960500
C        1.48687000      -1.60128600      -0.18441900
C        3.32579900      -0.26447800       0.57056900
C       -2.20962500      -1.39135400      -0.30382400
C       -2.63903700      -2.70829100      -0.04404200
C       -0.29975200      -3.31299400       0.36808200
C       -1.65878600      -3.63155500       0.33623600
C        2.27666100      -2.15035900      -1.20510400
C        3.60800100      -1.74709800      -1.29104400
C        4.17704300      -0.82680200      -0.40097100
H       -1.96597200      -4.64197600       0.58516000
H        4.23405300      -2.17409700      -2.06718000
N       -0.87903100      -1.07957000      -0.24706400
N        2.01846800      -0.66760700       0.64853800
C        5.59801300      -0.44931800      -0.52438300
C        6.43176500      -0.35405800       0.60348100
C        6.13697100      -0.21547300      -1.80338400
C        7.77838500      -0.02583800       0.45206600
H        6.03655800      -0.56182900       1.59203200
C        7.48040300       0.12627000      -1.94743500
H        5.49770200      -0.27715100      -2.67959600
C        8.30409100       0.22055700      -0.82039000
H        8.41729000       0.03327800       1.32820400
H        7.88271100       0.32196900      -2.93702200
H        9.35202400       0.48329800      -0.93378700
C       -4.05766400      -3.10517400      -0.12347100
C       -4.86666900      -2.71284600      -1.20428200
C       -4.60104200      -3.92279300       0.88480700
C       -6.19601800      -3.12836100      -1.27079100
H       -4.45233200      -2.10874900      -2.00469000
C       -5.93403900      -4.32462000       0.81941300
H       -3.98541700      -4.21810800       1.72951000
C       -6.73403000      -3.92942500      -0.25839000
H       -6.80944200      -2.83002200      -2.11588000
H       -6.34902300      -4.94150400       1.61111000
H       -7.77192900      -4.24603800      -0.30961300
C       -3.08835500      -0.30664200      -0.59022700
C        3.73367000       0.75022300       1.48392800
N       -3.82946900       0.55036100      -0.84361100
N        4.12717400       1.56772400       2.20771400
C        0.70198200      -4.35524200       0.78096600
H        0.68732500      -5.19457100       0.07673300
H        1.71714800      -3.96011700       0.84505100
H        0.41935800      -4.74835900       1.76377800
C        1.71203200      -3.13799900      -2.18811000
H        2.34814300      -3.18290500      -3.07533400
H        1.67475200      -4.14100700      -1.74801600
H        0.69580500      -2.86540300      -2.48803300
