73
Properties=species:S:1:pos:R:3 pbc="F F F"
Si       0.00153500       1.31331100       0.65155300
O       -1.33333400       2.33071000      -0.20312900
C       -2.10935600       3.16945600       0.33321200
C       -3.19010500       3.78540000      -0.38390900
H       -1.92840400       3.47843400       1.36701800
C       -3.48085200       3.46021200      -1.72799600
C       -3.96217400       4.75049200       0.29945100
C       -4.53228700       4.09792700      -2.37133600
H       -2.88262800       2.71174000      -2.23548500
C       -5.01368300       5.38390700      -0.35415100
H       -3.72657500       4.98919000       1.33324900
C       -5.29661300       5.05719700      -1.68670900
H       -4.76590900       3.85594800      -3.40366100
H       -5.61141200       6.12723300       0.16411000
H       -6.11789900       5.55205300      -2.19789900
C       -3.78952900       1.12411400       1.99879800
C       -2.53691100       0.73784500       1.93000500
H       -4.55157400       0.67078900       1.36690300
H       -4.10246900       1.89989600       2.69628300
C       -1.28048600       0.41953100       1.80086600
H       -0.88173400      -0.39303600       2.41038800
Cl       1.41356800       2.18001000      -0.83341400
Cl       0.53603200       2.81626600       2.19184500
O        1.32780900       0.07523800       1.33153400
O       -0.31884900      -0.00349500      -0.81660300
C        1.78955100      -1.55855200      -0.25534500
C        0.41324200      -2.06295100      -0.05134800
C       -1.91336500      -1.65457300      -0.44373300
C        3.48724200      -0.03948300       0.48749700
C        4.43533600      -0.62546000      -0.37440500
C        2.68058500      -2.14223000      -1.16719200
C        3.98600800      -1.65194100      -1.21341300
C        0.12791000      -3.33595900       0.45849200
C       -1.20789900      -3.74449900       0.49229300
C       -2.25009000      -2.94662600       0.00828400
H        4.68907000      -2.10024000      -1.90763200
H       -1.44456200      -4.73061500       0.87818500
N        2.20189400      -0.50993200       0.50971300
N       -0.60683000      -1.24804900      -0.44155400
C       -3.64196300      -3.43803800       0.01312700
C       -4.47154800      -3.28712800      -1.11127400
C       -4.13502800      -4.09665500       1.15422200
C       -5.77470500      -3.78319700      -1.09050100
H       -4.09069400      -2.80777000      -2.00713500
C       -5.44323900      -4.57824000       1.17408900
H       -3.50172900      -4.20537800       2.02996500
C       -6.26514400      -4.42322800       0.05237900
H       -6.40462400      -3.67320200      -1.96837200
H       -5.82161100      -5.07070900       2.06512200
H       -7.28304900      -4.80236800       0.06821700
C        5.83950300      -0.17327900      -0.43300900
C        6.59282300       0.03299800       0.73548500
C        6.44440800       0.01812300      -1.68876100
C        7.92716200       0.42829100       0.64614300
H        6.14694100      -0.13984000       1.70918000
C        7.77461000       0.42660400      -1.77157100
H        5.86278500      -0.12729000      -2.59454600
C        8.51898300       0.63141700      -0.60470300
H        8.50484500       0.57411400       1.55420900
H        8.22791600       0.58880800      -2.74511700
H        9.55652600       0.94671300      -0.66998000
C        3.77743800       1.05638800       1.35166000
C       -2.86772800      -0.69782700      -0.89565700
N        4.08059500       1.92979900       2.05313400
N       -3.68317000       0.03416700      -1.27883500
C        1.20964300      -4.25536800       0.95224600
H        1.42362200      -5.01925700       0.19537300
H        2.13554000      -3.72254600       1.17928700
H        0.86643400      -4.77300000       1.85292100
C        2.26698900      -3.27097600      -2.07041600
H        2.77405100      -3.17257800      -3.03447700
H        2.57020600      -4.23016100      -1.63412400
H        1.18743100      -3.29362500      -2.23559800
