73
Properties=species:S:1:pos:R:3 pbc="F F F"
Si       0.50039200       1.94835200      -0.53286100
O       -1.08919700       1.47242200       0.63142900
C       -2.26831300       1.88564700       0.54193300
C       -3.31794400       1.42310600       1.41142900
H       -2.52855600       2.60453700      -0.24447000
C       -3.06375500       0.54424100       2.48947500
C       -4.63411500       1.85357700       1.13793900
C       -4.11878500       0.11269700       3.27989100
H       -2.04546700       0.22438600       2.68675900
C       -5.68711300       1.40461500       1.92888200
H       -4.81336400       2.52364700       0.30151500
C       -5.42790800       0.53970900       2.99821300
H       -3.93633700      -0.55613900       4.11559500
H       -6.70294900       1.72371600       1.71877100
H       -6.24932300       0.19156200       3.61822900
C       -1.49257000       5.33825700      -1.44060200
C       -1.01337600       4.13452200      -1.63503400
H       -0.89837800       6.22378200      -1.66237600
H       -2.49869500       5.49091100      -1.05140600
C       -0.53488500       2.93192700      -1.80538800
H       -0.68923000       2.43359700      -2.76245500
Cl       2.34791800       1.97789400      -1.74833000
Cl       0.98024500       3.52291700       0.88274200
O        1.24270200       0.69202800       0.72976500
O       -0.03928800       0.27741800      -1.57744700
C        1.51366000      -1.42544600      -0.19243100
C        0.04290700      -1.56060200      -0.16821100
C       -2.02285400      -0.84974300      -1.14369300
C        3.40394800      -0.13050500       0.50388700
C        4.29064900      -1.14097900       0.08327400
C        2.35579800      -2.43512000      -0.68213200
C        3.73280100      -2.25985300      -0.54763700
C       -0.62704600      -2.53438500       0.58792100
C       -2.01084200      -2.64051100       0.44704400
C       -2.73773500      -1.84175600      -0.44355600
H        4.39820400      -3.03385300      -0.91556100
H       -2.54067000      -3.38930300       1.02635600
N        2.05498500      -0.29188400       0.32865700
N       -0.66901700      -0.71431400      -0.96247900
C       -4.19531200      -2.01131300      -0.59322500
C       -4.80898400      -2.00387600      -1.85816000
C       -4.98305700      -2.20452000       0.55592300
C       -6.18782000      -2.17906800      -1.96701000
H       -4.20873300      -1.88853100      -2.75464600
C       -6.36252700      -2.36304600       0.44242700
H       -4.51735500      -2.19336300       1.53581700
C       -6.96795200      -2.35180200      -0.81868400
H       -6.65190600      -2.18441000      -2.94880600
H       -6.96447200      -2.48925100       1.33753800
H       -8.04317000      -2.47925100      -0.90680000
C        5.75247700      -1.03528000       0.25995400
C        6.31440300      -0.65382400       1.49035500
C        6.59728900      -1.36232500      -0.81629500
C        7.70001000      -0.59742800       1.63753700
H        5.67284200      -0.42742200       2.33551200
C        7.98141100      -1.28939600      -0.66739500
H        6.16633700      -1.64453500      -1.77259000
C        8.53529800      -0.90857000       0.55968600
H        8.12647500      -0.31340900       2.59511500
H        8.62629200      -1.52552500      -1.50880100
H        9.61413600      -0.85575000       0.67570600
C        3.83033100       1.08852400       1.10722400
C       -2.63242500       0.11196200      -1.99884000
N        4.23722500       2.04467400       1.62387400
N       -3.16769900       0.89499800      -2.66883200
C        1.80668400      -3.67700300      -1.32764600
H        1.69156800      -4.47308800      -0.58256800
H        0.83335700      -3.49918600      -1.79130800
H        2.50559800      -4.03425500      -2.08876900
C        0.09843500      -3.44742600       1.53617200
H       -0.46492700      -3.52036900       2.47164500
H        0.15767300      -4.45608500       1.11095000
H        1.10988200      -3.10243200       1.75822800
