85
Properties=species:S:1:pos:R:3 pbc="F F F"
Si      -0.47299000       0.79364100       1.47425900
O        1.07440400       1.48974000       0.48161600
C        1.18366800       1.87149800      -0.71182200
C        2.39089500       2.48345600      -1.20992500
H        0.37887200       1.66858000      -1.42425300
C        3.44321700       2.87296900      -0.35184000
C        2.52573200       2.62822700      -2.60672000
C        4.61619400       3.38143400      -0.89259600
H        3.31915600       2.78202500       0.72148400
C        3.70947400       3.12880800      -3.14117300
H        1.70659800       2.33163500      -3.25686300
C        4.75269600       3.50199100      -2.28515600
H        5.42866900       3.68542900      -0.23973100
H        3.82297000       3.23060200      -4.21599200
H        5.67586400       3.89488300      -2.70191500
C       -0.77273000       4.28608700      -0.41357400
C       -1.06815800       3.45266300       0.56085800
H       -1.37356000       4.32391700      -1.32145100
H        0.05340500       4.99086400      -0.32529600
C       -1.27313300       2.55247800       1.47478100
H       -1.93375700       2.75273000       2.31835000
Cl       0.64944600       1.17729000       3.36408500
Cl      -2.12546200      -0.25381700       2.53927900
O       -1.20211000       0.46371300      -0.25150000
O        0.42248400      -0.90105400       1.34011700
C       -1.25215900      -1.80305100      -0.67357100
C        0.21111700      -1.75164400      -0.82629700
C        2.38080900      -1.37629400       0.13516500
C       -3.29692000      -0.53811000      -0.50674900
C       -4.04217100      -1.72388500      -0.67939800
C       -1.96854800      -2.97893600      -0.83761500
C       -3.35777900      -2.93987600      -0.81310400
C        0.79564800      -2.21545900      -1.99751600
C        2.17469800      -2.18137400      -2.14338800
C        2.98517600      -1.75878900      -1.08358900
H       -1.43008300      -3.90757500      -0.98423400
H       -3.92599900      -3.85478300      -0.94125400
H        0.15039200      -2.55989100      -2.79685800
H        2.63196300      -2.47931100      -3.08057100
C        4.45561000      -1.72269100      -1.25752400
C        3.18901100      -1.24289100       1.37243300
N       -1.93168400      -0.63863100      -0.47826300
N        1.00995300      -1.30302800       0.19294200
C       -3.90067800       0.80216600      -0.36236800
C       -5.52408400      -1.71693700      -0.72782900
C       -6.23937200      -2.63224900       0.06190200
C       -6.22663700      -0.84189600      -1.57302300
C       -8.32751500      -1.78866400      -0.82555700
C       -7.61925000      -0.88472100      -1.62556400
C       -7.63439700      -2.66103700       0.01903500
H       -5.70162100      -3.30339900       0.72616900
H       -8.17762300      -3.36150900       0.64707200
H       -9.41322100      -1.81188000      -0.86029000
H       -8.15219400      -0.20997500      -2.28963400
H       -5.68240700      -0.13372800      -2.18872800
C       -4.81990300       1.04145400       0.66724300
C       -3.60113400       1.81534200      -1.28410400
C       -5.13495800       3.29932000      -0.14503800
C       -4.22703400       3.05613600      -1.18080000
C       -5.42495800       2.29220100       0.78096400
H       -5.04754200       0.25419100       1.37687000
H       -6.12531000       2.47844400       1.59000200
H       -5.61339300       4.27103200      -0.05921000
H       -4.00073400       3.83530700      -1.90284800
H       -2.88651000       1.62743100      -2.07878700
C        3.82384600      -2.41639400       1.81752700
C        3.41584800      -0.03699500       2.03887400
C        4.89521800      -1.16673200       3.58981400
C        4.27180900      -0.00030700       3.14038300
C        4.66415600      -2.37802600       2.92897100
H        3.65947100      -3.35170300       1.29045900
H        5.14169400      -3.29112200       3.27284100
H        5.55821200      -1.13425300       4.45003700
H        4.44393000       0.94325700       3.65018400
H        2.93170000       0.86495600       1.69868900
C        5.11674000      -2.81234400      -1.84772700
C        5.19535500      -0.58527900      -0.89210600
C        7.22771400      -1.63836900      -1.68199900
C        6.57149000      -0.54294500      -1.10905600
C        6.49732900      -2.77271500      -2.05011600
H        4.55143200      -3.69761600      -2.12627200
H        7.00151500      -3.62757000      -2.49195900
H        8.30195600      -1.60733700      -1.84163700
H        7.13126400       0.34590600      -0.83161400
H        4.69132800       0.26715100      -0.45085700
