69
Properties=species:S:1:pos:R:3 pbc="F F F"
Si       0.14474000      -0.75884700       0.92599300
O        1.92501000      -1.34882700       0.39413900
C        2.25885200      -2.55320700       0.27253500
C        3.55386800      -2.95689000      -0.20442000
H        1.53876400      -3.33540300       0.53833300
C        4.54870900      -2.01684100      -0.55838600
C        3.80760300      -4.34069600      -0.32325100
C        5.77662200      -2.46514000      -1.02387800
H        4.33897900      -0.95667800      -0.45957500
C        5.04135700      -4.78050900      -0.79353800
H        3.03318900      -5.05152500      -0.04718800
C        6.02198300      -3.84385600      -1.14220300
H        6.54910500      -1.75281200      -1.29728200
H        5.24305800      -5.84288800      -0.88842200
H        6.98581300      -4.18653000      -1.50865600
C        0.12135000      -2.67131600      -2.64324200
C       -0.33601900      -2.35542400      -1.45501400
H        0.85763900      -3.46442900      -2.77078700
H       -0.22651900      -2.15961300      -3.53978700
C       -0.72499000      -2.02814100      -0.25296200
H       -1.58115100      -2.55510700       0.17023100
Cl       1.25828500       0.66195700       2.26988800
Cl      -0.02028400      -2.24144000       2.62912600
O        0.30660600       0.41961900      -0.54516400
O       -1.41533900       0.14238200       1.43561100
C       -1.10435800       2.26993000      -0.31545100
C       -2.26686700       1.37318600      -0.37675900
C       -3.41938500      -0.52075100       0.48521000
C        1.26097000       2.51698100      -0.36629000
C        1.18182900       3.90785900      -0.29204300
C       -1.23136400       3.65187700      -0.24934100
C       -0.10046600       4.46736000      -0.23629200
C       -3.31571000       1.58126600      -1.26493200
C       -4.41385400       0.72355600      -1.28364700
C       -4.48395000      -0.36217000      -0.40159200
H       -2.22639400       4.07724900      -0.18922900
H       -0.22813200       5.54109900      -0.17423300
H       -3.24797900       2.41305000      -1.95630000
H       -5.20819600       0.90557100      -1.99734100
C       -5.62850800      -1.37385500      -0.35898600
H       -3.36926200      -1.30163300       1.23055400
N        0.15649000       1.74582200      -0.38736100
N       -2.36529700       0.31919400       0.48842500
H        2.18871200       1.96638300      -0.41877500
C        2.48014400       4.71365800      -0.26131000
C        3.30431700       4.39784600      -1.53187200
C        2.21093600       6.22658500      -0.20807200
C        3.28686400       4.30189200       0.99376600
H        2.74861800       4.67763300      -2.43389100
H        4.23719500       4.97155200      -1.50230800
H        3.55989100       3.33439300      -1.59327900
H        3.17031000       6.75329800      -0.19179300
H        1.64921900       6.56372800      -1.08698300
H        1.65398400       6.50251700       0.69457000
H        3.52876600       3.23361600       0.98292800
H        4.22432700       4.86846500       1.01548700
H        2.72150700       4.52069300       1.90633300
C       -6.71593100      -1.04589700      -1.39520700
C       -5.05712400      -2.78106100      -0.65866500
C       -6.26295900      -1.36511100       1.05222900
H       -6.31560800      -1.06507400      -2.41533900
H       -7.50657700      -1.79911100      -1.32368300
H       -7.16193800      -0.06221000      -1.20861900
H       -6.67540100      -0.37735400       1.28598300
H       -7.07443600      -2.10052200       1.08087900
H       -5.53357700      -1.63211800       1.82473400
H       -4.58185400      -2.80641200      -1.64560700
H       -4.32001200      -3.08395700       0.09324400
H       -5.87650700      -3.50808300      -0.64379500
