69
Properties=species:S:1:pos:R:3 pbc="F F F"
Si      -0.51159300      -1.51142900      -0.96845100
O        1.11192800      -1.12955700       0.04784600
C        2.22514500      -1.71301400       0.05671400
C        3.22970000      -1.40863700       1.04684900
H        2.47497200      -2.41399100      -0.74520000
C        2.96978700      -0.52960700       2.12116500
C        4.50644400      -1.98810100       0.89638900
C        3.97900300      -0.24243900       3.02991400
H        1.98307800      -0.08900000       2.22071800
C        5.51539700      -1.68693200       1.80673400
H        4.69262900      -2.66301100       0.06501900
C        5.25021100      -0.81814100       2.87243600
H        3.78912500       0.43103400       3.86023900
H        6.50193800      -2.12536300       1.69305800
H        6.03666300      -0.58542200       3.58498500
C        1.31809100      -4.40842700       1.12547400
C        0.28632800      -3.86191000       0.51937100
H        2.00806800      -5.05822600       0.58832200
H        1.49529600      -4.25514700       2.18917600
C       -0.66862700      -3.23601800      -0.10343600
H       -1.65887400      -3.68778300      -0.17292600
Cl       0.70638400      -2.20478700      -2.72875100
Cl      -2.46096700      -1.64602700      -2.04667600
O       -1.30535600      -0.73537400       0.58519100
O       -0.38564500       0.24350400      -1.63386800
C       -1.77639300       1.55703900       0.32051000
C       -0.35787000       1.84116700       0.07297500
C        1.57444100       1.42233500      -1.26155000
C       -3.49926100      -0.04237400       0.67396000
C       -4.49092100       0.93819700       0.72126800
C       -2.72722100       2.56885000       0.38502200
C       -4.07300200       2.26761800       0.58585400
C        0.34873200       2.83257900       0.75284500
C        1.67376500       3.09433500       0.43093800
C        2.32241400       2.38401800      -0.59475000
H       -2.40181400       3.59334200       0.24606300
H       -4.79244300       3.07646000       0.61987800
H       -0.15311400       3.37516000       1.54545900
H        2.21256400       3.85479600       0.98475200
C        3.78287900       2.65649900      -0.94739100
H        1.94110700       0.80814600      -2.07126100
N       -2.19857100       0.26761900       0.49883800
N        0.28841500       1.17065700      -0.91984200
H       -3.68891500      -1.09979300       0.78792000
C       -5.94358200       0.50244600       0.91005200
C       -6.07193400      -0.26233400       2.24904000
C       -6.90135700       1.70483000       0.93217100
C       -6.33897100      -0.43259900      -0.25836700
H       -5.80018700       0.38367000       3.09147100
H       -7.11101500      -0.58552900       2.37580100
H       -5.43298700      -1.15171600       2.26856300
H       -7.92360600       1.33739800       1.06587900
H       -6.67024000       2.38380600       1.76102300
H       -6.85952500       2.26639500      -0.00812700
H       -5.70350200      -1.32380700      -0.29409800
H       -7.37672100      -0.75485600      -0.11870800
H       -6.25888100       0.09013600      -1.21795800
C        4.64693600       2.41471300       0.31262700
C        4.29253100       1.74611200      -2.07833800
C        3.91336100       4.13214100      -1.39244500
H        4.57021200       1.37365600       0.64170800
H        5.69342000       2.63176700       0.07237400
H        4.34250700       3.06581400       1.13902200
H        3.59198500       4.81779700      -0.60116700
H        4.96297900       4.34268700      -1.62499000
H        3.31067600       4.32058500      -2.28799500
H        4.24023600       0.68772900      -1.79642300
H        3.72250100       1.89561800      -3.00286700
H        5.33957200       1.99091200      -2.28165100
