69
Properties=species:S:1:pos:R:3 pbc="F F F"
Si       0.53060700      -1.42334100       1.18116200
O       -1.23065800      -1.26919800       0.32294300
C       -1.54690800      -1.26414100      -0.89443500
C       -2.92043400      -1.37108500      -1.32139700
H       -0.77899600      -1.10427900      -1.65702500
C       -3.96213000      -1.63313600      -0.40440800
C       -3.20971600      -1.16909000      -2.68699500
C       -5.27337800      -1.68970800      -0.85648600
H       -3.72208700      -1.79219300       0.64179800
C       -4.52840500      -1.21740800      -3.12955000
H       -2.39755800      -0.97076600      -3.38192300
C       -5.55685100      -1.47960100      -2.21574700
H       -6.08072400      -1.89269800      -0.15960900
H       -4.75880100      -1.05650900      -4.17812200
H       -6.58575500      -1.52116500      -2.56205200
C       -0.56188700      -4.06636100      -1.62622000
C        0.11091300      -3.68891400      -0.56012100
H       -0.14417400      -3.96291400      -2.62708300
H       -1.54471500      -4.52756200      -1.53660600
C        0.70759800      -3.22194100       0.49669000
H        1.37426600      -3.85981200       1.07793800
Cl      -0.58068600      -2.03677000       3.02544300
Cl       2.52052700      -1.38316300       2.18978500
O        1.24315100      -0.73145400      -0.46221400
O        0.31787500       0.37609600       1.69457700
C        1.69226600       1.57520400      -0.34798100
C        0.26815200       1.84497900      -0.12625400
C       -1.68068100       1.43813300       1.18730600
C        3.42569100      -0.02357300      -0.64866300
C        4.40550600       0.96368800      -0.75758100
C        2.63079200       2.59260600      -0.47015900
C        3.97681100       2.29410200      -0.67362500
C       -0.45424100       2.76421400      -0.88556500
C       -1.79503300       2.99749200      -0.61113000
C       -2.44469800       2.32611500       0.43940500
H        2.29574000       3.61918900      -0.37776400
H        4.68822900       3.10669400      -0.75375100
H        0.04687900       3.26828800      -1.70379700
H       -2.34605900       3.70099200      -1.22489600
C       -3.92570200       2.55830400       0.72583200
H       -2.04764700       0.85904500       2.02206200
N        2.12526300       0.28346900      -0.46623700
N       -0.37599200       1.21651400       0.89634200
H        3.62542800      -1.08329000      -0.71078400
C        5.85902100       0.53342900      -0.95060400
C        5.97182900      -0.29613800      -2.25182700
C        6.80312400       1.74310300      -1.05040800
C        6.28379300      -0.33664200       0.25691500
H        5.67270200       0.30193400      -3.12008300
H        7.01291700      -0.61011600      -2.38419800
H        5.34662900      -1.19483400      -2.21295600
H        7.82663500       1.37996100      -1.18666400
H        6.54894300       2.37890900      -1.90641900
H        6.77446000       2.34943200      -0.13779400
H        5.65858900      -1.23111800       0.34823100
H        7.32280500      -0.65435900       0.11683200
H        6.21193400       0.23414200       1.18936700
C       -4.73048400       2.19664600      -0.54593700
C       -4.43653200       1.70273600       1.89747200
C       -4.13448600       4.05282200       1.06447600
H       -4.59161300       1.14240900      -0.80571100
H       -5.79432500       2.37317700      -0.35326500
H       -4.42960300       2.81353200      -1.39923400
H       -3.81540100       4.69818500       0.23908000
H       -5.19979000       4.23035400       1.24791200
H       -3.57307400       4.32873100       1.96413000
H       -4.33294300       0.63248000       1.68672300
H       -3.90191100       1.93400900       2.82598000
H       -5.49819100       1.91734700       2.05332300
