69
Properties=species:S:1:pos:R:3 pbc="F F F"
Si       0.03492700      -0.97305100       0.62631000
O        1.58970700      -1.69429100      -0.21348700
C        2.53726100      -2.30642700       0.34490600
C        3.73592600      -2.67559100      -0.36185600
H        2.43700500      -2.60672600       1.39278100
C        3.92986300      -2.35451400      -1.72411800
C        4.72870800      -3.38150000       0.35052100
C        5.10609900      -2.73591400      -2.35518400
H        3.15533600      -1.81539700      -2.26013800
C        5.90503100      -3.75861900      -0.29008100
H        4.56546500      -3.62082300       1.39803800
C        6.09216400      -3.43553800      -1.63985000
H        5.26496900      -2.49593300      -3.40217100
H        6.67320700      -4.30078000       0.25256400
H        7.01004600      -3.73058700      -2.14087900
C        3.71946300       0.13360200       1.90967700
C        2.40607500       0.17075600       1.88482200
H        4.25022000      -0.57468200       2.54464700
H        4.32246900       0.81769200       1.31428800
C        1.10582300       0.13337600       1.81579200
H        0.53534200       0.75859900       2.50548000
Cl      -1.10856100      -2.24308800      -0.84104600
Cl      -0.14464900      -2.58922000       2.19522300
O       -1.49780000      -0.11304000       1.28581600
O        0.05244500       0.29494300      -0.79800300
C       -2.41388700       1.37556800      -0.27666000
C       -1.19034200       2.18606600      -0.20714300
C        1.17849100       2.29033200      -0.44193800
C       -3.59467100      -0.56527200       0.43111400
C       -4.71383500      -0.24352400      -0.33755000
C       -3.51478600       1.74778800      -1.03806400
C       -4.65588900       0.94699800      -1.07206000
C       -1.21011300       3.55375200       0.05499100
C       -0.02554600       4.28017600       0.07557400
C        1.20671500       3.65484700      -0.17378700
H       -3.45632200       2.65785700      -1.62382200
H       -5.49360300       1.25502400      -1.68550500
H       -2.16205200       4.02823400       0.26261300
H       -0.05832200       5.34105800       0.29579900
C        2.51412700       4.44245500      -0.13167100
H        2.04796000       1.69150100      -0.66383400
N       -2.50401500       0.22514200       0.45678100
N        0.01440300       1.59957000      -0.46063200
H       -3.52158700      -1.44471900       1.05410100
C       -5.89869500      -1.20830200      -0.34354300
C       -6.40422400      -1.41177600       1.10414400
C       -7.05865800      -0.68049100      -1.20408000
C       -5.42208800      -2.56385600      -0.91955500
H       -6.73905900      -0.46218800       1.53670500
H       -7.24978000      -2.10798900       1.08911600
H       -5.62659800      -1.83629500       1.74795900
H       -7.87966800      -1.40352700      -1.16848800
H       -7.43085900       0.27985800      -0.82868600
H       -6.75689500      -0.55815100      -2.25071000
H       -4.61117000      -2.99154600      -0.32016200
H       -6.26266000      -3.26664500      -0.91684500
H       -5.06701900      -2.44284400      -1.94897200
C        2.68042600       5.03128400       1.28976800
C        3.73597300       3.56444600      -0.45052800
C        2.43884400       5.59149200      -1.16383500
H        2.72744800       4.23164000       2.03760200
H        3.61254100       5.60556400       1.33068000
H        1.85188900       5.70120800       1.54291600
H        1.60325800       6.26662300      -0.95087600
H        3.36759700       6.17082000      -1.12060700
H        2.32038300       5.19371600      -2.17802900
H        3.84410500       2.75489100       0.27973200
H        3.66736500       3.12980400      -1.45461000
H        4.63753400       4.18311000      -0.40651400
