57
Properties=species:S:1:pos:R:3 pbc="F F F"
Si       0.40416600      -0.62471000       1.04189800
O        2.26851700      -0.29802500       0.66245200
C        2.80125000       0.18048400      -0.37047700
C        4.22624800       0.14759600      -0.58518700
H        2.17658200       0.66435000      -1.12704800
C        5.10362400      -0.47283600       0.33200800
C        4.73383900       0.75822800      -1.75175700
C        6.46830400      -0.47847700       0.07572400
H        4.69840400      -0.93926500       1.22421800
C        6.10316300       0.74979600      -1.99907000
H        4.04764100       1.22896100      -2.45103900
C        6.96755200       0.13136700      -1.08674100
H        7.15093100      -0.95407200       0.77341500
H        6.49965000       1.21794600      -2.89478700
H        8.03667000       0.12244400      -1.28038000
C        1.83091600      -2.10189800      -2.39953300
C        1.09146300      -2.15370100      -1.31415700
H        1.42213900      -1.76222500      -3.35050600
H        2.87148000      -2.42425700      -2.38539100
C        0.42844200      -2.12232800      -0.19458800
H       -0.09973600      -3.01954600       0.12830000
Cl       0.53222100       1.16386800       2.39591900
Cl       0.96781500      -1.98958300       2.73339600
O       -0.08040100       0.49553700      -0.44721200
O       -1.41951700      -0.72436700       1.48659300
C       -2.29516300       1.19279900      -0.22767500
C       -2.68630800      -0.21896100      -0.41921700
C       -2.64587500      -2.42204600       0.50253200
C       -0.49308200       2.75798000      -0.19022200
C       -1.37067400       3.82829500      -0.02730200
C       -3.21719200       2.22549500      -0.02879200
C       -2.73053400       3.53732900       0.06720900
C       -3.51520700      -0.65855100      -1.46123500
C       -3.90516900      -2.00251700      -1.47516100
C       -3.49889000      -2.90116100      -0.48483000
H       -3.43741200       4.34627700       0.22855000
H       -4.53968300      -2.35222400      -2.28470000
H       -2.23954400      -3.02336400       1.30490500
N       -0.96067800       1.49922100      -0.28059500
N       -2.25567800      -1.13085800       0.50260800
H        0.58187300       2.85744100      -0.24304500
C       -4.69497900       1.97058200       0.10588200
H       -5.21464600       2.26845300      -0.81186100
H       -4.91930500       0.92114200       0.30626800
H       -5.09410200       2.57904000       0.92318700
C       -3.97423000       0.26451700      -2.55859400
H       -3.93891000      -0.26366200      -3.51634500
H       -5.01275100       0.57034700      -2.38765200
H       -3.35688200       1.16288100      -2.62655600
C       -0.82999100       5.22717100       0.08503100
H       -0.28160600       5.34410200       1.02788900
H       -0.13220600       5.44139600      -0.73181000
H       -1.64254300       5.95777100       0.06192700
C       -3.93322100      -4.34048000      -0.48597900
H       -3.48061400      -4.89512400       0.34009600
H       -5.02405600      -4.40367500      -0.39741900
H       -3.65033400      -4.81783000      -1.43112100
