57
Properties=species:S:1:pos:R:3 pbc="F F F"
Si       0.54450900      -1.83493600       0.56815900
O       -1.25164700      -1.08554800       0.21060300
C       -1.71334800      -0.58835600      -0.84770700
C       -3.09682400      -0.19978600      -0.96652200
H       -1.04391200      -0.37199400      -1.68480900
C       -4.02556800      -0.43108900       0.07192700
C       -3.49582000       0.47376200      -2.13997500
C       -5.33347600       0.01320900      -0.06901200
H       -3.70496800      -0.95442200       0.96687500
C       -4.80777200       0.91882200      -2.27134600
H       -2.77054800       0.64238100      -2.93202000
C       -5.72385500       0.68854400      -1.23705900
H       -6.05570100      -0.16095800       0.72275600
H       -5.12076600       1.43987600      -3.17085100
H       -6.74876400       1.03419400      -1.33975500
C       -1.58759700      -3.14796000      -2.57343500
C       -0.67465300      -3.26106000      -1.63294300
H       -1.33629500      -2.77986500      -3.56759100
H       -2.61887800      -3.45085900      -2.39540500
C        0.18666900      -3.28367500      -0.65818200
H        0.77974300      -4.18070100      -0.47563400
Cl      -0.40103000      -2.85262200       2.32639500
Cl       2.61581900      -2.47775900       1.07095900
O        1.12357000      -0.75028500      -0.90027300
O        0.84839700      -0.32115700       1.66408900
C        2.00120600       1.29798700      -0.15067800
C        0.66252800       1.62231600       0.38071400
C       -0.97470900       1.05983500       2.03042000
C        3.34225400      -0.30808500      -1.30105400
C        4.46141600       0.51915000      -1.24117200
C        3.10044700       2.15738300      -0.03978000
C        4.31991600       1.74763400      -0.59732400
C       -0.09831300       2.73124200      -0.01486300
C       -1.30431800       2.97594800       0.65165800
C       -1.75122200       2.16467800       1.69852100
H        5.17978200       2.40560400      -0.51022000
H       -1.91095700       3.82079900       0.33724000
H       -1.23640200       0.32472500       2.77971900
N        2.16933500       0.08884800      -0.77192100
N        0.17001900       0.80861900       1.36168600
H        3.33046100      -1.28973000      -1.75429900
C        3.01856500       3.48085300       0.67335100
H        2.92418400       4.29629900      -0.05322300
H        2.17023500       3.53004100       1.35923600
H        3.93989500       3.64718700       1.23924400
C        0.33810200       3.63276200      -1.13786700
H       -0.53167200       3.91642900      -1.73811400
H        0.77627300       4.55253200      -0.73445000
H        1.07721900       3.15440100      -1.78457500
C        5.76679500       0.05234500      -1.82322200
H        6.20706300      -0.72063600      -1.18092500
H        5.61684600      -0.38714400      -2.81502900
H        6.47377200       0.88232200      -1.90060700
C       -3.05144200       2.42425600       2.40723600
H       -3.88853700       2.22880500       1.72603100
H       -3.16263400       1.78304800       3.28538400
H       -3.11188600       3.47260000       2.71795500
