57
Properties=species:S:1:pos:R:3 pbc="F F F"
Si       0.31540000      -0.93310200       0.73941000
O        2.11986800      -1.01435200       0.10771600
C        2.76152300      -0.18346500      -0.58299700
C        4.18353200      -0.28644100      -0.78664800
H        2.22427400       0.62482800      -1.08932400
C        4.95275500      -1.29813600      -0.16948800
C        4.80157400       0.66400300      -1.62670400
C        6.32183600      -1.34797600      -0.39450000
H        4.46332700      -2.02022400       0.47600400
C        6.17406300       0.60524900      -1.84761900
H        4.19772800       1.43729300      -2.09438300
C        6.93163200      -0.39856300      -1.23116300
H        6.92276800      -2.12009300       0.07626400
H        6.65558400       1.33312100      -2.49327800
H        8.00376300      -0.44402300      -1.40152900
C        2.89560000       1.99782500       1.68942100
C        1.82470500       1.26042500       1.88633500
H        2.84399900       2.95357100       1.16866900
H        3.86785400       1.69258400       2.07386100
C        0.79801300       0.46809900       1.99341400
H        0.14871100       0.54864200       2.86662400
Cl      -0.11188300      -2.49050700      -0.82947300
Cl       0.77039600      -2.51729900       2.26406400
O       -1.45959100      -0.80356100       1.33592200
O       -0.13115900       0.30197100      -0.67841100
C       -2.81795600       0.07631700      -0.34970500
C       -2.14108300       1.36892400      -0.12123900
C       -0.08415600       2.57177900      -0.22281200
C       -3.06683600      -2.17643400       0.40666900
C       -4.10240200      -2.40885600      -0.49427700
C       -3.82963000      -0.11432700      -1.29816400
C       -4.45787500      -1.36567500      -1.35051300
C       -2.81692900       2.53278600       0.26404100
C       -2.08168100       3.72049900       0.37821500
C       -0.71151900       3.76503700       0.12451700
H       -5.24226000      -1.52541700      -2.08486700
H       -2.59699900       4.62792500       0.68017800
H        0.97432200       2.48379700      -0.42024100
N       -2.46246400      -0.97413900       0.45006100
N       -0.78850200       1.42942200      -0.33149800
H       -2.67686100      -2.91175900       1.09741300
C       -4.24468600       0.97122200      -2.25533000
H       -5.17691800       1.43784500      -1.91665700
H       -3.48493300       1.75003400      -2.35176000
H       -4.43216000       0.53582600      -3.24145400
C       -4.28990300       2.54036400       0.57661900
H       -4.46695200       3.13857900       1.47585000
H       -4.84736600       3.00538900      -0.24444400
H       -4.68561500       1.53573700       0.73763200
C       -4.75540100      -3.76150600      -0.55956800
H       -4.21582100      -4.39854700      -1.27219200
H       -4.73671900      -4.25720000       0.41528600
H       -5.79057800      -3.67280100      -0.90174300
C        0.09658400       5.02428400       0.27052300
H        0.52147100       5.07644600       1.28123900
H        0.92558900       5.04699300      -0.44346900
H       -0.53325600       5.90552600       0.12063700
