69
Properties=species:S:1:pos:R:3 pbc="F F F"
Si      -0.45823600      -1.51773800      -0.79136300
O        1.19451500      -1.06032200       0.34040400
C        2.13446600      -1.85317800       0.56774700
C        3.22475700      -1.53825100       1.45577000
H        2.13907100      -2.83290900       0.07440100
C        3.23420800      -0.36160100       2.23857800
C        4.29803400      -2.45103900       1.53267600
C        4.30902900      -0.10699900       3.07812800
H        2.39554100       0.32479900       2.18046200
C        5.37906700      -2.18027200       2.36677000
H        4.27237300      -3.35747400       0.93335500
C        5.38236600      -1.01167300       3.13777900
H        4.32341600       0.79074900       3.68868400
H        6.21192000      -2.87409100       2.42438800
H        6.22258800      -0.80375800       3.79445500
C        1.57679000      -4.73644300      -2.24400100
C        1.10643500      -3.51334300      -2.20695100
H        2.55386700      -4.98150400      -1.82885400
H        1.00152500      -5.54787800      -2.68818000
C        0.63446000      -2.29686300      -2.16178000
H        0.85538800      -1.62617100      -2.99384600
Cl      -2.36239600      -1.60598000      -1.92396000
Cl      -0.78303300      -3.31070000       0.45341600
O       -1.18384900      -0.51337100       0.64901700
O       -0.15691400       0.21138600      -1.62359500
C       -1.72705400       1.69937000       0.06915300
C       -0.30051200       1.99411100      -0.11305500
C        1.75279400       1.46201200      -1.18787900
C       -3.41462200       0.12754700       0.66547300
C       -4.44764200       1.06643000       0.55832100
C       -2.70502300       2.67239300      -0.04107300
C       -4.04279900       2.35470800       0.19185300
C        0.32392700       3.07100400       0.49499000
C        1.67368100       3.32587500       0.25849600
C        2.44110800       2.52617700      -0.59802900
H       -2.41305500       3.67504300      -0.32856700
H       -4.78435200       3.13535100       0.08293000
H       -0.25012400       3.69537000       1.16863200
H        2.13612600       4.16701600       0.75858600
C        3.92422000       2.78325900      -0.89677200
F        2.31919400       0.61856600      -2.02906700
N       -2.10919700       0.43155200       0.42332500
N        0.43532500       1.20611000      -0.95654000
F       -3.61488900      -1.11268100       1.04991300
C       -5.90600600       0.68410500       0.84186700
C       -6.04511600       0.23344100       2.31724700
C       -6.84493300       1.88455700       0.61954100
C       -6.34878800      -0.45202800      -0.11289400
H       -5.73257200       1.03639800       2.99442600
H       -7.09922700       0.00715500       2.51096500
H       -5.45795900      -0.66211500       2.53373200
H       -7.86955700       1.55880900       0.82316100
H       -6.60996600       2.71386100       1.29648300
H       -6.80004300       2.24504200      -0.41443100
H       -7.40192800      -0.67817800       0.08673100
H       -6.25381300      -0.13494700      -1.15724600
H       -5.76952800      -1.36661400       0.03151700
C        4.77159900       1.55054900      -0.49713800
C        4.09680800       3.08507500      -2.40599900
C        4.44410400       3.99418000      -0.10086800
H        4.48620700       0.65208500      -1.04868200
H        5.82193700       1.76956000      -0.71814700
H        4.67678900       1.34889300       0.57417800
H        3.80947700       2.23558400      -3.03042900
H        3.49931500       3.95691500      -2.69500300
H        5.15212000       3.30911500      -2.59582400
H        4.36275400       3.82921900       0.97977300
H        5.50070300       4.13848400      -0.34587900
H        3.90478800       4.91133300      -0.36284900
