69
Properties=species:S:1:pos:R:3 pbc="F F F"
Si      -0.48317900      -1.51309300      -0.92060700
O        1.08335300      -1.24503100       0.22519900
C        1.96172100      -2.10330600       0.49137700
C        3.06893000      -1.82238600       1.36673600
H        1.86906400      -3.11186400       0.07608100
C        3.15132400      -0.61672700       2.09937600
C        4.06986500      -2.80758200       1.50829600
C        4.22726200      -0.40256400       2.94866100
H        2.36318000       0.12196400       2.00398300
C        5.15373100      -2.57739300       2.34994600
H        3.98743600      -3.73752800       0.95216800
C        5.23129800      -1.37739300       3.06776000
H        4.29441900       0.51729000       3.52156000
H        5.93158300      -3.32706000       2.45562600
H        6.07371000      -1.20125500       3.73085500
C        3.16384100      -2.31634000      -2.52885100
C        1.85177700      -2.31851200      -2.46463900
H        3.75249300      -3.11698800      -2.08262000
H        3.70454900      -1.52976600      -3.05326400
C        0.55440300      -2.30642900      -2.34038300
H       -0.04862000      -2.81101700      -3.09711100
Cl      -2.37427900      -1.43549700      -2.10315400
Cl      -0.93438600      -3.46048800       0.08180400
O       -1.24414300      -0.66473300       0.60056900
O       -0.14557600       0.27182700      -1.57472800
C       -1.74266500       1.60238500       0.24217300
C       -0.30913700       1.89539100       0.11420900
C        1.74757100       1.48983600      -1.00823000
C       -3.46622900       0.00544900       0.63068000
C       -4.48411600       0.96574800       0.58893000
C       -2.70474200       2.59670700       0.20457700
C       -4.05273800       2.27795600       0.36659800
C        0.31280000       2.90118400       0.83599400
C        1.66246400       3.18573400       0.63117800
C        2.43162000       2.48972100      -0.30987900
H       -2.39314200       3.61857600       0.02657000
H       -4.78073200       3.07719900       0.31536300
H       -0.26613200       3.44889200       1.56968500
H        2.12028400       3.97084300       1.21916500
C        3.90619000       2.80025400      -0.60271900
F        2.31437200       0.75437600      -1.94117500
N       -2.15105400       0.31206700       0.45530800
N        0.43312800       1.19922100      -0.80267200
F       -3.69299400      -1.26492600       0.87779300
C       -5.95542000       0.57729700       0.78251600
C       -6.15184200      -0.02862600       2.19412200
C       -6.87161700       1.80880600       0.65839200
C       -6.37544700      -0.44385000      -0.30344800
H       -5.85747600       0.69156100       2.96596200
H       -7.21414600      -0.26212200       2.32454600
H       -5.57999100      -0.94947800       2.33098600
H       -7.90588500       1.48115300       0.80063100
H       -6.64393800       2.56099100       1.42229700
H       -6.79258600       2.27127700      -0.33203900
H       -7.43869900      -0.67109800      -0.16891100
H       -6.23470900      -0.02031000      -1.30392500
H       -5.81451500      -1.37826300      -0.23305200
C        4.78188600       1.54151600      -0.38792000
C        4.03421300       3.29730600      -2.06445300
C        4.43005500       3.90843800       0.32878500
H        4.70687400       1.18910900       0.64515100
H        4.50924100       0.72417500      -1.05871100
H        5.82476400       1.81188800      -0.58591900
H        3.72814300       2.53526400      -2.78566100
H        3.42703900       4.19655600      -2.21758600
H        5.08314400       3.54947300      -2.25493500
H        4.36114400       3.61415800       1.38235500
H        5.48321500       4.08745700       0.09218600
H        3.88412900       4.84767100       0.18498400
