69
Properties=species:S:1:pos:R:3 pbc="F F F"
Si       0.11769800      -0.85730800       0.80981800
O        1.84030400      -1.46454100       0.29402300
C        2.36201200      -2.59974500       0.45514100
C        3.59810900      -2.96562000      -0.18763200
H        1.88969500      -3.31695000       1.13276400
C        4.26849300      -2.08850900      -1.06960700
C        4.13426300      -4.24107800       0.08923900
C        5.45650500      -2.49259900      -1.66368600
H        3.84415000      -1.11057100      -1.27282300
C        5.32592000      -4.63724800      -0.51038800
H        3.60804100      -4.90552200       0.76941800
C        5.98415700      -3.76443000      -1.38574300
H        5.97940500      -1.82664900      -2.34358600
H        5.74300900      -5.61751100      -0.30147100
H        6.91394300      -4.07361800      -1.85532400
C        0.38429200      -4.20076900      -1.35161300
C       -0.21168200      -3.09002800      -0.98157700
H        0.18433000      -5.14334500      -0.84326200
H        1.07547600      -4.21812000      -2.19312400
C       -0.71537400      -1.97068800      -0.54920500
H       -1.64674900      -1.63015200      -1.00178600
Cl       1.21375100       0.52492500       2.21271800
Cl      -0.18775900      -2.34240200       2.45257000
O        0.28380100       0.40502300      -0.63765500
O       -1.44399900       0.08108900       1.32574700
C       -0.98815400       2.33314500      -0.23950900
C       -2.21208000       1.52724900      -0.36319500
C       -3.49685300      -0.35651100       0.32665400
C        1.38357000       2.44006500      -0.37860500
C        1.41993500       3.82439100      -0.17288800
C       -1.01798400       3.70353700      -0.04811400
C        0.17080900       4.43233800      -0.00459100
C       -3.24579400       1.88688800      -1.21129500
C       -4.39606200       1.10253100      -1.29593900
C       -4.55991500      -0.05975900      -0.53331700
H       -1.97553500       4.19190100       0.08563400
H        0.11548300       5.49973200       0.16544500
H       -3.13073900       2.77168300      -1.82528300
H       -5.17636400       1.40251800      -1.98328800
C       -5.79289300      -0.96802600      -0.62196700
F       -3.49811600      -1.39393400       1.13664700
N        0.22823400       1.72453300      -0.40006600
N       -2.36670800       0.40091100       0.40363200
F        2.46458400       1.72077100      -0.59681600
C        2.74890000       4.58961400      -0.13216700
C        3.46964100       4.45728600      -1.49619000
C        2.51453000       6.08655300       0.14093100
C        3.63829100       4.02724000       1.00445300
H        2.84439400       4.85977400      -2.30117500
H        4.39788000       5.03795000      -1.45562500
H        3.72504200       3.42099200      -1.72986400
H        3.48752200       6.58647700       0.16638200
H        1.91260000       6.55089200      -0.64854100
H        2.02107100       6.24673300       1.10621400
H        4.56009100       4.61774500       1.04556300
H        3.12741200       4.11268800       1.96970200
H        3.90785300       2.98132300       0.84096600
C       -5.35690300      -2.38789700      -1.06252700
C       -6.50272700      -1.02612500       0.75281900
C       -6.79827100      -0.43364300      -1.65825600
H       -4.69781400      -2.86398000      -0.33276200
H       -6.25428300      -3.00748100      -1.16703900
H       -4.84727500      -2.35019800      -2.03183900
H       -5.86800500      -1.46167200       1.52802200
H       -6.81162000      -0.02310400       1.06727000
H       -7.39809400      -1.64906100       0.65269900
H       -6.35932400      -0.39210800      -2.66158000
H       -7.65379900      -1.11506500      -1.68875000
H       -7.16556700       0.56295500      -1.38803200
