69
Properties=species:S:1:pos:R:3 pbc="F F F"
Si       0.16282800      -0.87886200       0.65411500
O        1.86354300      -1.36591400      -0.03331200
C        2.23187600      -2.53263000      -0.33500400
C        3.59147700      -2.83906800      -0.68416700
H        1.49028200      -3.33624400      -0.36662400
C        4.60273600      -1.85110200      -0.68747700
C        3.89654300      -4.17209100      -1.03534700
C        5.89816300      -2.20248900      -1.04013800
H        4.35227700      -0.83159200      -0.41255300
C        5.19803000      -4.51412900      -1.38778500
H        3.10896300      -4.92085700      -1.02281000
C        6.19512900      -3.53045600      -1.39010000
H        6.68365400      -1.45293100      -1.04608300
H        5.43994500      -5.53713800      -1.65853100
H        7.21192100      -3.79709900      -1.66518100
C        1.97116000      -3.92215300       2.55402200
C        0.95555700      -3.14550800       2.25110400
H        2.18284400      -4.82564600       1.98273500
H        2.61978200      -3.70060000       3.40097700
C       -0.00384400      -2.34151200       1.89107100
H       -1.00685000      -2.48243500       2.29556100
Cl       1.27620400       0.43926600       2.12868500
Cl      -0.91047400      -2.08203700      -0.98601100
O        0.21401900       0.43395400      -0.69725600
O       -1.42238900      -0.07339400       1.28792400
C       -1.11678200       2.28327500      -0.14329600
C       -2.31163300       1.43740900      -0.27745600
C       -3.49813100      -0.52763400       0.35183500
C        1.24705600       2.49040500      -0.34731600
C        1.23659900       3.86417500      -0.07903500
C       -1.19053500       3.63976300       0.12047700
C       -0.02882900       4.41174900       0.16013400
C       -3.38239300       1.79918900      -1.07683500
C       -4.50500000       0.97593500      -1.16428700
C       -4.60264100      -0.22470800      -0.45258200
H       -2.16044200       4.08253700       0.31096400
H       -0.11898000       5.46716100       0.38282200
H       -3.31968300       2.71635600      -1.64965900
H       -5.31828600       1.27951500      -1.81056900
C       -5.81210000      -1.16433900      -0.53492800
F       -3.44436700      -1.59454700       1.12105600
N        0.11747400       1.73445000      -0.36641600
N       -2.39862600       0.26950100       0.43317200
F        2.34428800       1.82494800      -0.63623300
C        2.53505000       4.68019500      -0.05120800
C        3.21166300       4.63265800      -1.44338000
C        2.25249000       6.15455600       0.29147300
C        3.48483300       4.10848800       1.03013800
H        2.54062600       5.03548800      -2.21039300
H        4.11350100       5.25378100      -1.41101700
H        3.50544100       3.61915800      -1.72630400
H        3.20573700       6.69145500       0.30608400
H        1.60693500       6.62566700      -0.45847800
H        1.78623700       6.25652200       1.27799000
H        4.38683900       4.72944700       1.06105300
H        3.00671100       4.13992000       2.01521100
H        3.78379200       3.07964800       0.81688400
C       -5.35528900      -2.54720000      -1.06164200
C       -6.46260100      -1.30758300       0.86333300
C       -6.87626200      -0.61190500      -1.50115600
H       -4.64327000      -3.03130100      -0.38925100
H       -6.23683700      -3.19140000      -1.15094300
H       -4.89496500      -2.44718000      -2.05077300
H       -5.78656400      -1.76490200       1.58929000
H       -6.78152900      -0.32939700       1.24057200
H       -7.34675000      -1.94720600       0.76867800
H       -6.48252800      -0.51024700      -2.51876100
H       -7.71281800      -1.31685000      -1.52832400
H       -7.25953300       0.35937800      -1.16787300
