69
Properties=species:S:1:pos:R:3 pbc="F F F"
Si       0.00225700      -1.05901400       0.59358100
O        1.54464100      -1.78348200      -0.23657000
C        2.46607200      -2.44774500       0.30827700
C        3.68267400      -2.77796800      -0.38585200
H        2.32393600      -2.82574900       1.32555700
C        3.92881200      -2.34210800      -1.70714600
C        4.63907900      -3.56122100       0.29469900
C        5.12006700      -2.68845800      -2.33010600
H        3.18282700      -1.74153900      -2.21756500
C        5.83034600      -3.90321700      -0.33789800
H        4.43627500      -3.88831900       1.31111100
C        6.06929000      -3.46684300      -1.64714700
H        5.31916500      -2.35957000      -3.34557400
H        6.57065000      -4.50511800       0.17993700
H        6.99937900      -3.73398900      -2.14129600
C        3.66271900      -0.20162600       2.09484900
C        2.35901100      -0.07387500       1.99578600
H        4.10441500      -0.96245900       2.73723500
H        4.34241700       0.45847600       1.55900800
C        1.06623800      -0.02119000       1.84977100
H        0.49534800       0.61580900       2.52763600
Cl      -1.17105100      -2.17517500      -0.95790100
Cl      -0.27439000      -2.72371600       2.07300900
O       -1.51429800      -0.14116800       1.27126700
O        0.08869600       0.27413000      -0.79353500
C       -2.29852600       1.48065900      -0.23079900
C       -1.02766900       2.21032900      -0.10123000
C        1.33569800       2.20136600      -0.38375300
C       -3.64014900      -0.39343500       0.36748400
C       -4.72653600       0.02849100      -0.40892300
C       -3.34843200       1.96091600      -0.99269800
C       -4.53938900       1.23975500      -1.08329800
C       -0.96336500       3.55251900       0.22687800
C        0.26851400       4.20718600       0.26261200
C        1.46677700       3.55419200      -0.04733600
H       -3.21581600       2.88814400      -1.53656600
H       -5.33439200       1.63295500      -1.70373200
H       -1.87997600       4.07690700       0.46826600
H        0.28820700       5.25414600       0.53622600
C        2.83558300       4.24742400      -0.03772500
F        2.35527900       1.45255400      -0.75240000
N       -2.47342200       0.30240600       0.44735900
N        0.13892600       1.55578400      -0.40021800
F       -3.66911000      -1.47954400       1.10750200
C       -6.01076800      -0.80530900      -0.50328300
C       -6.65640200      -0.94332700       0.89733900
C       -7.03549200      -0.13532600      -1.43690200
C       -5.67555100      -2.20301200      -1.08048000
H       -6.89113800       0.04340800       1.31225100
H       -7.59067300      -1.50569900       0.79242700
H       -6.01298200      -1.47965400       1.59833900
H       -7.92767100      -0.76744500      -1.47587500
H       -7.33233800       0.85280700      -1.06713700
H       -6.64496100      -0.03176100      -2.45561200
H       -6.60852300      -2.76885200      -1.17942700
H       -5.21880700      -2.10921500      -2.07191800
H       -4.99971200      -2.76676600      -0.43317900
C        3.78831600       3.51857800       0.94059400
C        3.42808400       4.23923900      -1.46814100
C        2.71002900       5.71174400       0.42103900
H        4.00993400       2.50099100       0.61361700
H        4.73066300       4.07509000       0.98563600
H        3.35713900       3.48200900       1.94696700
H        3.59932000       3.22516800      -1.83735600
H        2.76145200       4.76289600      -2.16247000
H        4.38955700       4.76427000      -1.44778000
H        2.30273200       5.78144000       1.43609200
H        3.70976700       6.15659400       0.42106000
H        2.07814300       6.29568100      -0.25772200
