75
Properties=species:S:1:pos:R:3 pbc="F F F"
Si       0.39547700      -1.02175300       0.61407700
O        2.04848900      -1.42406800      -0.24822000
C        3.10793500      -1.76690800       0.34000200
C        4.27523800      -2.20939200      -0.37149900
H        3.15709800      -1.70384700       1.43136000
C        4.29781100      -2.31510700      -1.78098800
C        5.41882300      -2.54329200       0.38645400
C        5.45343500      -2.75108900      -2.41388000
H        3.40981700      -2.05685800      -2.34871600
C        6.57270200      -2.97851100      -0.25739900
H        5.38500500      -2.45988800       1.46954400
C        6.58814500      -3.08200900      -1.65406200
H        5.48258900      -2.83812700      -3.49572600
H        7.45551800      -3.23777500       0.31860100
H        7.48869700      -3.42336100      -2.15716800
C        2.01579700      -4.52651500       1.69974200
C        1.22892000      -3.48568800       1.85114900
H        3.03794600      -4.52469100       2.07707900
H        1.66380800      -5.43360000       1.20937500
C        0.48363400      -2.42035800       1.93078800
H       -0.15437100      -2.26862200       2.80231300
Cl       1.46785300       0.42400900       2.06331000
Cl      -0.59713900      -2.32210600      -0.94866300
O        0.27557700       0.30317200      -0.72981100
O       -1.21141300      -0.35142100       1.34409500
C       -1.21292900       1.98308800      -0.05020300
C       -2.29829900       0.99910300      -0.23722500
C       -3.23679800      -1.07657200       0.47805000
C        1.11135700       2.43697500      -0.36102100
C        0.98044100       3.77660700       0.02105400
C       -1.41601600       3.29441000       0.36535200
C       -0.30694900       4.15687600       0.39679200
C       -3.36570100       1.18308500      -1.11052600
C       -4.36698100       0.19788000      -1.14796600
C       -4.35290800      -0.94905600      -0.35599400
H       -0.47641400       5.17252100       0.73340000
H       -5.18756100       0.34843800      -1.83936400
C       -5.44682500      -2.02372700      -0.39245700
F       -3.05723800      -2.09637900       1.29285000
N        0.06168600       1.58249600      -0.36822100
N       -2.25397600      -0.14604800       0.51906300
F        2.25246400       1.90525000      -0.75054800
C        2.18749800       4.72242200       0.04621100
C        2.78044100       4.85037700      -1.37856100
C        1.77815000       6.12803000       0.52099700
C        3.25579400       4.17666000       1.02534700
H        2.02686100       5.23491300      -2.07514300
H        3.61409700       5.56036600      -1.34433400
H        3.15876600       3.89729500      -1.75593100
H        2.66824500       6.76442200       0.52152500
H        1.03602900       6.57782200      -0.14823900
H        1.37294900       6.10686600       1.53910700
H        4.09274500       4.88321700       1.05250200
H        2.84105700       4.08936100       2.03555000
H        3.63971100       3.20156200       0.71701900
C       -4.83218000      -3.37538000      -0.83227400
C       -6.09426000      -2.15605500       1.00787000
C       -6.55387800      -1.65457000      -1.39633400
H       -4.07205900      -3.73224100      -0.13380200
H       -5.63385900      -4.12072300      -0.87855100
H       -4.38215400      -3.28506500      -1.82700900
H       -5.37565800      -2.47321000       1.76716800
H       -6.54001200      -1.20345200       1.31578800
H       -6.88827000      -2.90883600       0.95289400
H       -6.16235100      -1.57549600      -2.41676400
H       -7.30857700      -2.44674100      -1.38108700
H       -7.04234500      -0.71100600      -1.12797400
C       -2.76419200       3.80867000       0.79446800
H       -3.18928600       4.45138200       0.01515500
H       -3.46833000       2.99976000       0.99881300
H       -2.65008400       4.41498600       1.69846700
C       -3.47243100       2.37877300      -2.01944200
H       -3.84666400       2.06018600      -2.99702300
H       -4.18632700       3.10328700      -1.61056500
H       -2.51230100       2.88054500      -2.15614300
