75
Properties=species:S:1:pos:R:3 pbc="F F F"
Si       0.35083600      -1.65343500       0.98405800
O       -1.27363900      -1.29224200       0.00252400
C       -2.35189700      -1.94214000      -0.03873100
C       -3.36003000      -1.65804700      -1.02939800
H       -2.56712500      -2.68022100       0.73897900
C       -3.12936200      -0.73862100      -2.07666200
C       -4.61343100      -2.29087500      -0.90287200
C       -4.14736400      -0.45856400      -2.97778000
H       -2.15722400      -0.26387600      -2.16361300
C       -5.63111300      -1.99787400      -1.80599200
H       -4.77649300      -2.99793800      -0.09373400
C       -5.39754800      -1.08422100      -2.84104400
H       -3.98000600       0.24479600      -3.78801400
H       -6.60068100      -2.47646500      -1.70977800
H       -6.19120500      -0.85734500      -3.54744000
C       -1.36511400      -4.53734500      -1.21109400
C       -0.35703800      -3.98610600      -0.56909700
H       -2.05260900      -5.21493900      -0.70614800
H       -1.52310300      -4.35997600      -2.27406500
C        0.56966600      -3.35591900       0.08948900
H        1.57027600      -3.78190700       0.16739400
Cl      -0.79653000      -2.41827800       2.74202300
Cl       2.31554300      -1.71686100       2.04155100
O        1.09116900      -0.81880700      -0.60718600
O        0.18778600       0.11107400       1.67638200
C        1.72169600       1.39532800      -0.15065400
C        0.28389300       1.71085600      -0.03841300
C       -1.72572000       1.34538700       1.19568100
C        3.33901700      -0.27305300      -0.68930000
C        4.41200700       0.61659700      -0.56683300
C        2.73726200       2.33102900       0.01731700
C        4.06198500       1.91311900      -0.19294600
C       -0.37043700       2.65410500      -0.82466300
C       -1.72346000       2.91772900      -0.55573900
C       -2.44372600       2.29765800       0.46513500
H        4.84487700       2.64785700      -0.04991300
H       -2.22297300       3.64605500      -1.18337700
C       -3.91265600       2.61214400       0.78210600
F       -2.25440700       0.64712900       2.18062900
N        2.05486800       0.10314400      -0.47599900
N       -0.42856700       1.05292700       0.93351100
F        3.48561700      -1.53760600      -1.03185800
C        5.85707300       0.16222000      -0.80907800
C        6.00536700      -0.33907500      -2.26650300
C        6.84730700       1.32326200      -0.60170400
C        6.22459200      -0.96321200       0.18883000
H        5.74642500       0.45730100      -2.97348300
H        7.05053000      -0.62228100      -2.43192400
H        5.37849700      -1.21054800      -2.46969200
H        7.85830600       0.94817600      -0.78895000
H        6.65428400       2.14834300      -1.29690300
H        6.81031100       1.70595000       0.42449300
H        7.27095600      -1.24360000       0.02452000
H        6.11693400      -0.61072900       1.22061800
H        5.60589300      -1.85344400       0.05534000
C       -4.77919100       1.33674900       0.63895600
C       -4.01410800       3.17022400       2.22279100
C       -4.47053000       3.67230300      -0.18488900
H       -4.49776100       0.56021800       1.35361900
H       -5.82382500       1.60797900       0.82608300
H       -4.70232400       0.93035300      -0.37435700
H       -3.68133700       2.44417100       2.96882400
H       -3.41612200       4.08298400       2.32373600
H       -5.06172500       3.41729800       2.42700700
H       -4.43587700       3.32571100      -1.22419200
H       -5.51616900       3.85945400       0.07736600
H       -3.92378000       4.61876300      -0.10617600
C        0.31495400       3.38021700      -1.95108500
H        1.24189300       2.88922500      -2.25309400
H       -0.35683700       3.43171600      -2.81352900
H        0.54860200       4.40790400      -1.65040100
C        2.46813000       3.75339900       0.43055200
H        3.19046800       4.05209600       1.19657200
H        2.59525600       4.42669000      -0.42505500
H        1.45987400       3.88364100       0.82813500
