75
Properties=species:S:1:pos:R:3 pbc="F F F"
Si       0.23644900      -1.05516200       1.07326600
O        1.95214400      -1.81637900       0.67131200
C        2.62801700      -1.73258700      -0.38662400
C        3.80671400      -2.52863700      -0.61103300
H        2.33601200      -1.01635400      -1.15780900
C        4.26179100      -3.47766100       0.33178300
C        4.51076700      -2.33206900      -1.81842600
C        5.40686800      -4.21465700       0.06053400
H        3.70939600      -3.61822100       1.25526500
C        5.65767600      -3.07444100      -2.08108400
H        4.14599000      -1.60265300      -2.53689100
C        6.10354400      -4.01359200      -1.14243500
H        5.76539900      -4.94673700       0.77777100
H        6.20343000      -2.92841400      -3.00812400
H        6.99862000      -4.59465600      -1.34695000
C        0.46881300      -3.10786700      -2.35969500
C       -0.13211200      -2.72146300      -1.25737700
H        0.28195400      -2.61512500      -3.31308500
H        1.15601400      -3.95326600      -2.35607900
C       -0.62666700      -2.31232300      -0.12436400
H       -1.54414900      -2.76907900       0.24457500
Cl       1.34932000       0.40891300       2.36430300
Cl      -0.01954000      -2.44437800       2.79643200
O        0.41612300       0.11826800      -0.47399200
O       -1.32616300      -0.08141100       1.52445100
C       -0.90011800       2.01959100      -0.15761100
C       -2.06979400       1.13617800      -0.34327200
C       -3.32248200      -0.70712100       0.50804000
C        1.47521200       2.17998800      -0.28165200
C        1.47188700       3.56209300      -0.06627700
C       -0.98444800       3.38604000       0.08388300
C        0.21115400       4.12308800       0.13256400
C       -3.01256800       1.31242800      -1.35109200
C       -4.11374500       0.44167300      -1.38786300
C       -4.32021800      -0.58146700      -0.46431200
H        0.13499400       5.18471600       0.33395700
H       -4.83455400       0.58271300      -2.18430200
C       -5.52677600      -1.52749800      -0.50259100
F       -3.35505700      -1.62231400       1.45750200
N        0.33914900       1.44567800      -0.30282600
N       -2.23785500       0.10426700       0.54861700
F        2.57846600       1.48531100      -0.49417200
C        2.77667300       4.36831600      -0.03363500
C        3.48825900       4.25716900      -1.40420000
C        2.50003900       5.85783900       0.24038900
C        3.69229800       3.83466000       1.09554300
H        2.84265800       4.63898600      -2.20337000
H        4.39864600       4.86589400      -1.37432500
H        3.77330800       3.22888800      -1.63952800
H        3.45750300       6.38732600       0.25367200
H        1.87451400       6.30165500      -0.54246000
H        2.01348200       6.00497400       1.21125500
H        4.59627700       4.45273500       1.12973900
H        3.18621500       3.90521000       2.06448000
H        3.99237500       2.79718500       0.93125000
C       -5.03825900      -2.98446800      -0.69176700
C       -6.33610900      -1.39661000       0.81102200
C       -6.46285300      -1.18213400      -1.67528700
H       -4.43604300      -3.33118800       0.15115200
H       -5.91496200      -3.63587600      -0.77553900
H       -4.44932000      -3.07591300      -1.61126700
H       -5.75239900      -1.68491700       1.68855700
H       -6.69045500      -0.36796500       0.94194600
H       -7.20765600      -2.05727300       0.74728400
H       -5.95545000      -1.28850400      -2.64085000
H       -7.30744300      -1.87762900      -1.65576500
H       -6.85681900      -0.16299300      -1.58995800
C       -2.29729900       4.08751300       0.30815900
H       -2.55872600       4.69012500      -0.56922300
H       -3.11116500       3.38694600       0.50432500
H       -2.20548400       4.76725500       1.16110100
C       -2.88491300       2.38608500      -2.39878600
H       -3.19186000       1.98738100      -3.37033600
H       -3.54741400       3.22618600      -2.16007000
H       -1.86407800       2.76494800      -2.47849000
