75
Properties=species:S:1:pos:R:3 pbc="F F F"
Si       0.35144500      -0.95524500       0.95693100
O        2.12886800      -1.46607300       0.36888400
C        2.50928400      -2.65308700       0.21657900
C        3.81376700      -2.98833000      -0.28501900
H        1.82621800      -3.47096700       0.47303600
C        4.75486000      -1.99489900      -0.64159500
C        4.13442200      -4.35640300      -0.42350000
C        5.99636900      -2.37602600      -1.12989800
H        4.49253300      -0.94810300      -0.52731100
C        5.38201900      -4.72830400      -0.91498500
H        3.40062900      -5.10776800      -0.14384100
C        6.30881200      -3.73942100      -1.26711300
H        6.72816000      -1.62311600      -1.40644800
H        5.63603100      -5.77800100      -1.02412300
H        7.28318100      -4.02911800      -1.65096400
C        0.14039200      -2.65349900      -2.71523100
C       -0.21633500      -2.44880900      -1.47020300
H        0.93335800      -3.35766800      -2.96531800
H       -0.34731600      -2.13216300      -3.53794300
C       -0.51537400      -2.23127800      -0.21785900
H       -1.26664400      -2.87010900       0.24738800
Cl       1.42945600       0.50757900       2.27705700
Cl       0.29769500      -2.45094100       2.64121900
O        0.42623000       0.24202200      -0.53649700
O       -1.23103500      -0.09019700       1.52516400
C       -1.00003800       2.04980100      -0.13948900
C       -2.11876200       1.09707400      -0.29704300
C       -3.22100500      -0.83106000       0.57495300
C        1.35689700       2.35983500      -0.34136700
C        1.27183900       3.73768700      -0.11041400
C       -1.16197300       3.40561900       0.11945600
C       -0.01428900       4.21640200       0.13505100
C       -3.10026100       1.21730900      -1.27545000
C       -4.14235900       0.27487500      -1.28769000
C       -4.25215700      -0.76704300      -0.36830800
H       -0.15065300       5.26977200       0.34841200
H       -4.89300600       0.37211300      -2.06284500
C       -5.38391000      -1.80155200      -0.38291900
F       -3.16067300      -1.75353100       1.51550200
N        0.26732500       1.55668500      -0.33233700
N       -2.19440000       0.05181500       0.59083000
F        2.49111100       1.73902900      -0.59750600
C        2.52310400       4.62430200      -0.11309200
C        3.19676600       4.56609900      -1.50602600
C        2.16407300       6.09230000       0.18232800
C        3.50591000       4.14240600       0.98219400
H        2.50218100       4.90696000      -2.28226700
H        4.06501600       5.23416900      -1.50084200
H        3.54157100       3.55992900      -1.75623700
H        3.08677900       6.68049300       0.16983400
H        1.48626700       6.50296500      -0.57492500
H        1.70202000       6.20192900       1.17000100
H        4.37422700       4.81057800       0.98752500
H        3.02968900       4.18330300       1.96789100
H        3.85823600       3.12371300       0.80448900
C       -4.78946600      -3.21464300      -0.60343600
C       -6.16097700      -1.74682400       0.95526000
C       -6.37831900      -1.51711800      -1.52343800
H       -4.13149200      -3.51877900       0.21396000
H       -5.61499600      -3.93256700      -0.66073000
H       -4.22946000      -3.25408500      -1.54452400
H       -5.52910400      -1.99282900       1.81197300
H       -6.59278500      -0.75106700       1.10611800
H       -6.97742900      -2.47580900       0.91161300
H       -5.89334300      -1.57154300      -2.50456900
H       -7.16527200      -2.27647800      -1.48955900
H       -6.84679900      -0.53266500      -1.41180000
C       -2.51082600       4.01625600       0.38906100
H       -2.87536900       4.53853600      -0.50299600
H       -3.25047100       3.26585400       0.67634200
H       -2.42525100       4.75294300       1.19347500
C       -3.07161000       2.29840900      -2.32266200
H       -3.34511800       1.87270500      -3.29298600
H       -3.80647200       3.07556300      -2.08284700
H       -2.08896100       2.76641700      -2.40740000
