69
Properties=species:S:1:pos:R:3 pbc="F F F"
Si       0.44218700      -1.27328400       1.27324400
O       -1.25828600      -1.32438700       0.36192500
C       -1.54861800      -1.44149300      -0.85887000
C       -2.89344400      -1.72490700      -1.28952900
H       -0.78697700      -1.25475000      -1.62099600
C       -3.91486700      -2.04091200      -0.36673400
C       -3.17832200      -1.65079400      -2.66947500
C       -5.20265500      -2.27628400      -0.82734400
H       -3.67773000      -2.09650100       0.69049900
C       -4.47514300      -1.87561900      -3.12051900
H       -2.37984000      -1.41625400      -3.36859400
C       -5.48387300      -2.18903000      -2.20019500
H       -5.99466400      -2.52236200      -0.12678300
H       -4.70376600      -1.81414400      -4.17997000
H       -6.49551600      -2.36924500      -2.55313000
C       -0.32527800      -4.19329400      -1.34215100
C        0.29437200      -3.68285400      -0.29911300
H        0.09252700      -4.11176200      -2.34508800
H       -1.25700000      -4.74628500      -1.22925800
C        0.83020200      -3.08367700       0.72195300
H        1.55842100      -3.59877600       1.34879000
Cl      -0.62362400      -1.88388400       3.12669800
Cl       2.36959700      -0.92383700       2.33724500
O        1.14865700      -0.62360300      -0.42852900
O        0.03122800       0.55824100       1.63818700
C        1.60861500       1.64209400      -0.31644100
C        0.16086000       1.89506500      -0.25602500
C       -1.94360600       1.58776300       0.86167900
C        3.37792100       0.05636900      -0.66360900
C        4.36073700       1.07020500      -0.66564700
C        2.53144200       2.66978100      -0.34856800
C        3.88277600       2.37761300      -0.49636600
C       -0.45338000       2.74230000      -1.15911000
C       -1.82183900       2.97086400      -1.07454800
C       -2.62094000       2.40359500      -0.07251800
H        2.18837400       3.69130500      -0.23825100
H        4.57977400       3.20354300      -0.48487700
H        0.14178700       3.19415900      -1.94317100
H       -2.27322000       3.61422900      -1.81693000
C       -4.14157200       2.67736900      -0.03919600
Cl      -2.66232700       0.87805400       2.24189900
N        2.05129600       0.35823000      -0.45315000
N       -0.59629600       1.32364200       0.72785200
Cl       3.67258800      -1.60784300      -0.95560400
C        5.87348800       0.80451600      -0.82838100
C        6.38175100      -0.13072400       0.29777700
C        6.17534700       0.21400100      -2.22765800
C        6.68588800       2.11311700      -0.71380600
H        5.93982000      -1.12684000       0.26086900
H        7.46664100      -0.23629500       0.18788900
H        6.17482000       0.31037400       1.27919500
H        7.26102500       0.10220300      -2.32385200
H        5.71916900      -0.76387000      -2.38594300
H        5.82894100       0.89816700      -3.01072800
H        7.74503600       1.85981200      -0.81869000
H        6.42968700       2.82498300      -1.50666000
H        6.54775900       2.59455100       0.26096100
C       -4.92649500       1.34746000      -0.15998800
C       -4.53324000       3.44996600       1.24456500
C       -4.57483200       3.55439000      -1.23434500
H       -4.65267900       0.82468400      -1.08264600
H       -4.76143400       0.67471900       0.68156200
H       -5.99574600       1.58251000      -0.20114300
H       -4.36290600       2.87852800       2.15733800
H       -3.97426200       4.39052600       1.30530300
H       -5.60110900       3.68734100       1.18665300
H       -4.34797400       3.07589200      -2.19384800
H       -5.65832500       3.69201700      -1.17250400
H       -4.10681100       4.54478700      -1.20605800
