69
Properties=species:S:1:pos:R:3 pbc="F F F"
Si      -0.05782300      -1.04502000       0.87163100
O        1.52682500      -2.00990100       0.40482400
C        1.97052400      -2.29787100      -0.73385800
C        3.26173700      -2.89641500      -0.92287100
H        1.35836100      -2.08497000      -1.61717700
C        4.12477500      -3.16092000       0.16658400
C        3.66151000      -3.20390800      -2.24224000
C        5.36770000      -3.72899600      -0.07248100
H        3.80375700      -2.90605700       1.17120200
C        4.90932500      -3.77507400      -2.47020800
H        2.98816900      -2.99241100      -3.06869900
C        5.75810300      -4.03688300      -1.38709200
H        6.04050200      -3.93597000       0.75411800
H        5.22389700      -4.01686200      -3.48060100
H        6.73278600      -4.48283300      -1.56523600
C        3.52880700      -0.20207500       2.60916300
C        2.25169500      -0.06343600       2.34725900
H        4.28407300       0.36403300       2.06672400
H        3.87209200      -0.88655600       3.38422000
C        0.97883500       0.04711900       2.08157700
H        0.41027800       0.79961800       2.63168800
Cl      -1.21622700      -2.19913600      -0.69291700
Cl      -0.54270300      -2.55711000       2.42547200
O       -1.54147900       0.05342300       1.30912000
O        0.26484100       0.13176200      -0.66598000
C       -2.04299600       1.52343700      -0.40746700
C       -0.72953600       2.16846700      -0.22000400
C        1.65860400       2.01288200      -0.40310300
C       -3.66183000      -0.10056500       0.31335200
C       -4.60828800       0.33843200      -0.64024800
C       -2.95160100       2.00718900      -1.32810600
C       -4.20062600       1.40716300      -1.44954200
C       -0.61233500       3.51942800       0.04254900
C        0.64879400       4.10115200       0.12543000
C        1.83009600       3.38224500      -0.10370200
H       -2.66773000       2.84029100      -1.95941500
H       -4.87448100       1.79795900      -2.19942700
H       -1.50903400       4.10721100       0.19702200
H        0.70171900       5.15451900       0.36293200
C        3.20363000       4.08534400      -0.02268400
Cl       2.92398300       0.94104900      -0.85302600
N       -2.41166700       0.47060400       0.38192800
N        0.41009200       1.43698400      -0.40809600
Cl      -3.94168500      -1.30805100       1.49529000
C       -6.00686200      -0.29103900      -0.82097300
C       -5.87667000      -1.79129500      -1.18536100
C       -6.86666300      -0.09557800       0.45269100
C       -6.77418000       0.38147500      -1.98004500
H       -5.41935000      -2.38589800      -0.39390200
H       -6.88192700      -2.18610900      -1.36918300
H       -5.28601000      -1.90918100      -2.10074100
H       -7.86886300      -0.48954000       0.25057700
H       -6.46708100      -0.61780900       1.32238700
H       -6.95694200       0.97054900       0.68985600
H       -7.74459500      -0.11501400      -2.07296400
H       -6.95634400       1.44457800      -1.78620400
H       -6.24645900       0.27524800      -2.93458400
C        4.10166900       3.40171300       1.03805100
C        3.88803100       4.09707900      -1.41192200
C        3.05097600       5.55917800       0.41220800
H        3.60037200       3.38973500       2.01188600
H        4.37365400       2.38075400       0.77047400
H        5.02518900       3.98344800       1.13082000
H        4.12014500       3.09739100      -1.78108900
H        3.25111500       4.60610100      -2.14422400
H        4.82729600       4.65451700      -1.32567400
H        2.57837300       5.64545700       1.39713000
H        4.05252400       5.99478700       0.47651300
H        2.47698500       6.14364200      -0.31549000
