75
Properties=species:S:1:pos:R:3 pbc="F F F"
Si       0.22881200      -1.07636200       1.02105800
O        1.90709300      -1.92162600       0.65647700
C        2.54819000      -1.96628000      -0.42651100
C        3.69781000      -2.81579300      -0.60257500
H        2.25225400      -1.32286000      -1.25599500
C        4.15102500      -3.68308600       0.41625000
C        4.37498300      -2.75673300      -1.83951300
C        5.26696800      -4.47803600       0.19000100
H        3.61985000      -3.71790000       1.36199700
C        5.49290600      -3.55580800      -2.05655400
H        4.01278900      -2.08688300      -2.61531000
C        5.93641800      -4.41515900      -1.04302100
H        5.62304600      -5.14917600       0.96570200
H        6.01783700      -3.51549500      -3.00599700
H        6.80832000      -5.04102900      -1.21241300
C        0.44172700      -3.31453200      -2.33355500
C       -0.16617700      -2.77680100      -1.29993600
H        0.41423900      -2.84600200      -3.31669400
H        0.97753100      -4.25843800      -2.24042200
C       -0.68346400      -2.23865500      -0.23375100
H       -1.69687200      -2.52824200       0.04150700
Cl       1.35761100       0.29926300       2.37192900
Cl      -0.13609300      -2.50547500       2.69324100
O        0.54408700       0.13651800      -0.50436200
O       -1.30465700      -0.02960200       1.45399200
C       -0.74786200       2.01873100      -0.19415900
C       -1.92066800       1.15159400      -0.44196500
C       -3.38166500      -0.52845200       0.46648700
C        1.64460700       2.20814500      -0.28369000
C        1.59358000       3.59232800      -0.01037700
C       -0.86534400       3.37326500       0.08443100
C        0.31555800       4.11719400       0.19109100
C       -2.78217400       1.34729400      -1.51369000
C       -3.93563100       0.55743000      -1.57228400
C       -4.29959700      -0.37241900      -0.59411900
H        0.20955700       5.16646300       0.43212700
H       -4.58378800       0.70376500      -2.42610700
C       -5.61802500      -1.16714300      -0.72047800
Cl      -3.59613300      -1.56157000       1.82127300
N        0.49663500       1.46260500      -0.31944000
N       -2.20782300       0.17965600       0.47641700
Cl       3.08292400       1.33012100      -0.62648500
C        2.83813400       4.50330800       0.09212600
C        3.77975700       4.01051000       1.21888500
C        3.57556400       4.56993800      -1.26877900
C        2.44180100       5.95192100       0.45162600
H        4.20358900       3.02491400       1.02389900
H        4.60729900       4.72285700       1.30961900
H        3.24376900       3.98033000       2.17396000
H        4.40278200       5.28211800      -1.17500400
H        3.98992600       3.60970200      -1.57839600
H        2.89728600       4.93140700      -2.05025600
H        3.35928500       6.54405100       0.51724100
H        1.80189900       6.40395000      -0.31473500
H        1.93464000       6.00628500       1.42144300
C       -5.32706900      -2.68659400      -0.80204400
C       -6.56467900      -0.83991800       0.46089900
C       -6.37542000      -0.79244300      -2.01281100
H       -4.67146000      -2.90170300      -1.65344500
H       -4.86873400      -3.08429800       0.10399300
H       -6.27765900      -3.20840800      -0.95785500
H       -6.16106300      -1.14249500       1.42770200
H       -6.78062100       0.23417700       0.48761900
H       -7.50649700      -1.37707100       0.30292100
H       -5.78909000      -1.02215600      -2.90966700
H       -7.29256700      -1.38756400      -2.04778400
H       -6.65786500       0.26634400      -2.02837400
C       -2.50620300       2.36877000      -2.58374200
H       -3.00513700       3.31460000      -2.34166000
H       -1.43683400       2.56569700      -2.69220300
H       -2.90369100       2.01838000      -3.54036300
C       -2.19322600       4.05328000       0.28328800
H       -2.14222400       4.69953600       1.16533600
H       -2.42172000       4.69026800      -0.57921200
H       -3.00954400       3.34090900       0.41586700
