75
Properties=species:S:1:pos:R:3 pbc="F F F"
Si      -0.42430700      -1.80962800      -0.58058300
O        1.19970000      -1.31196400       0.53379000
C        2.34152400      -1.81965300       0.52000000
C        3.39316700      -1.36983300       1.39688200
H        2.56769400      -2.62364900      -0.19180600
C        3.17806600      -0.34958300       2.35083400
C        4.66611200      -1.96151700       1.26248900
C        4.22955300       0.06630600       3.15499500
H        2.19224000       0.09487100       2.43996000
C        5.71617700      -1.53503100       2.07024800
H        4.81692100      -2.74328700       0.52297800
C        5.49657100      -0.52487900       3.01426000
H        4.07614700       0.84876100       3.89197300
H        6.69968500      -1.98304800       1.96978600
H        6.31593300      -0.19238300       3.64542700
C        1.68482100      -5.11295600      -1.69817000
C        1.13932700      -3.92619700      -1.81263400
H        2.71648700      -5.23454400      -1.36940700
H        1.12066700      -6.01673000      -1.92535700
C        0.59595000      -2.74350200      -1.91135800
H        0.67289900      -2.21685500      -2.86342000
Cl      -2.32173000      -1.94054900      -1.72645400
Cl      -0.75660600      -3.48703800       0.80489100
O       -1.15592900      -0.67075200       0.76206300
O       -0.04123700      -0.14895600      -1.57242600
C       -1.61252800       1.43241900      -0.09772100
C       -0.15227700       1.65268300      -0.13053700
C        1.91887100       1.09235200      -1.21237500
C       -3.39610300       0.01756100       0.68465600
C       -4.37498000       0.95404400       0.28490000
C       -2.52771600       2.39151100      -0.51011900
C       -3.88710300       2.10877800      -0.32988000
C        0.47834900       2.66063100       0.58928900
C        1.84647300       2.85614600       0.37304600
C        2.60701900       2.12778900      -0.54667800
H       -4.58914700       2.85276700      -0.68149100
H        2.32327700       3.63743500       0.95050500
C        4.09060200       2.48420000      -0.79560800
Cl       2.61370700       0.02453400      -2.36807300
N       -2.07059800       0.25502300       0.42875900
N        0.58890400       0.86132800      -0.96408800
Cl      -3.70824400      -1.43862200       1.53257200
C       -5.89471400       0.75023800       0.47438500
C       -6.36579500      -0.52826800      -0.26232300
C       -6.24902800       0.69215900       1.98083900
C       -6.69687800       1.92595000      -0.12518200
H       -5.92799800      -1.44125100       0.14215300
H       -7.45430700      -0.59960600      -0.16056100
H       -6.12162500      -0.46331000      -1.32848000
H       -7.33792200       0.61147600       2.07315700
H       -5.80186400      -0.16176100       2.49098000
H       -5.92742400       1.61266400       2.48150400
H       -7.76020900       1.71740400       0.02602900
H       -6.46608900       2.87535600       0.37121200
H       -6.52245400       2.03171300      -1.20199000
C        5.02441400       1.29678800      -0.45841100
C        4.27845700       2.93942000      -2.26457600
C        4.53888700       3.66162800       0.09648300
H        4.89173100       0.99213700       0.58350200
H        4.86808900       0.43057600      -1.10115800
H        6.05950500       1.63077700      -0.58967100
H        4.06824600       2.14686100      -2.98407400
H        3.63195900       3.79701800      -2.48276000
H        5.32079500       3.25038900      -2.39657900
H        4.46701000       3.41593300       1.16207900
H        5.58769300       3.87412800      -0.13059900
H        3.95926400       4.56988300      -0.10313900
C       -0.25752100       3.53080500       1.57215400
H       -1.17591700       3.06043300       1.93029100
H        0.38942800       3.74580600       2.42786600
H       -0.52098100       4.48744600       1.10600100
C       -2.11501900       3.69302300      -1.14296400
H       -2.75923900       3.90026100      -2.00320900
H       -2.24259100       4.51562600      -0.42951500
H       -1.07525100       3.68081600      -1.47558000
