75
Properties=species:S:1:pos:R:3 pbc="F F F"
Si       0.05899300      -0.90647000       0.93615200
O        1.77014200      -1.72942400       0.64859400
C        2.35936500      -1.88375200      -0.45383800
C        3.57602500      -2.64437100      -0.57694200
H        1.97333800      -1.38428000      -1.34539600
C        4.15642700      -3.30589700       0.52777300
C        4.18877500      -2.70725500      -1.84661800
C        5.33375700      -4.02128900       0.35344600
H        3.67304300      -3.24805500       1.49764400
C        5.36865400      -3.42574500      -2.01146400
H        3.72879700      -2.19486300      -2.68800500
C        5.93849700      -4.08173700      -0.91263300
H        5.78781900      -4.53508500       1.19534700
H        5.84463600      -3.47943500      -2.98569600
H        6.85904000      -4.64457000      -1.04071300
C        0.45037800      -3.83150500      -1.84286100
C       -0.21335600      -2.95766300      -1.11841000
H        0.80887500      -3.58673200      -2.84191100
H        0.64938300      -4.83559300      -1.46993700
C       -0.80004800      -2.08349600      -0.35248200
H       -1.88763500      -2.03874800      -0.41143700
Cl       1.16536500       0.46548400       2.34069900
Cl      -0.32608000      -2.35240900       2.61453700
O        0.37562600       0.26359300      -0.55053000
O       -1.45802600       0.10794400       1.36278100
C       -0.87608300       2.19467400      -0.32502800
C       -2.10514300       1.39286700      -0.46220200
C       -3.56350700      -0.31458800       0.44357200
C        1.53674000       2.29591600      -0.40714100
C        1.50483400       3.69998300      -0.22674000
C       -0.93395900       3.57047400      -0.20316000
C        0.24491300       4.30394300      -0.12899700
C       -3.06225700       1.70948300      -1.40902400
C       -4.24701400       0.98330300      -1.46141900
C       -4.53679300      -0.03750300      -0.54632100
H       -1.90157700       4.05361600      -0.14171300
H        0.16365400       5.37379600       0.00547200
H       -2.86233600       2.51032500      -2.11058300
H       -4.95826700       1.23502500      -2.23602100
C       -5.86245400      -0.81984100      -0.64889900
C       -3.67040700      -1.26962200       1.59039600
N        0.35184200       1.60636900      -0.39984500
N       -2.37627100       0.37522700       0.40586400
C        2.74022100       1.44157200      -0.65189000
C        2.78568100       4.55460000      -0.12056800
C        3.68274700       4.04147500       1.03579200
C        3.53692500       4.58560100      -1.47621700
C        2.45720400       6.02606600       0.22075600
H        4.02771800       3.01415000       0.91457000
H        4.56475400       4.68799200       1.10290800
H        3.13635700       4.10472600       1.98350300
H        4.43573700       5.20187900      -1.36211600
H        3.84500100       3.60354400      -1.83901500
H        2.90043100       5.04412800      -2.24175100
H        1.90898800       6.10838500       1.16586600
H        3.40114600       6.56935300       0.32648400
H        1.87831800       6.51074200      -0.57313200
C       -5.57731200      -2.33160900      -0.84391300
C       -6.75693200      -0.54352700       0.58647600
C       -6.68733200      -0.38126900      -1.88019800
H       -5.01984600      -2.48506400      -1.77504300
H       -5.00964600      -2.78750700      -0.03204200
H       -6.53465700      -2.85799800      -0.92493800
H       -6.13659900      -0.53961400      -2.81426300
H       -7.59548700      -0.99067900      -1.91431900
H       -6.98906100       0.67007600      -1.81508100
H       -6.29937800      -0.81196900       1.53965600
H       -7.01461600       0.52097300       0.62359900
H       -7.68392200      -1.11831600       0.48090500
H        2.58389200       0.85496700      -1.56265200
H        3.63888800       2.03356700      -0.76609000
H        2.87395600       0.74751500       0.18161100
H       -4.62713300      -1.77481900       1.61048200
H       -2.86750000      -2.01108200       1.55634100
H       -3.53208500      -0.71583900       2.52596200
