75
Properties=species:S:1:pos:R:3 pbc="F F F"
Si       0.47078000      -1.40040600       1.09060300
O       -1.16594400      -1.17115500       0.05908100
C       -2.15354600      -1.94315600      -0.02845900
C       -3.20599200      -1.71704800      -0.98638700
H       -2.25640300      -2.76825200       0.68357500
C       -3.10446800      -0.70769100      -1.96927900
C       -4.36910300      -2.50953200      -0.89974200
C       -4.15722700      -0.49918700      -2.84877100
H       -2.20096700      -0.11035000      -2.02666200
C       -5.42539800      -2.28562300      -1.77858300
H       -4.43353800      -3.28470800      -0.14060500
C       -5.31807400      -1.28384300      -2.75103500
H       -4.08743300       0.27178500      -3.61008600
H       -6.32687200      -2.88673200      -1.71260500
H       -6.14119300      -1.11192300      -3.43898800
C       -0.75573200      -4.32328500      -1.42352500
C        0.03150600      -3.78003000      -0.52030200
H       -1.62264800      -4.91625600      -1.13419800
H       -0.55036200      -4.22347400      -2.48880800
C        0.75254200      -3.17918000       0.38122700
H        1.61267600      -3.69708100       0.80803500
Cl      -0.69546700      -2.14985300       2.87671500
Cl       2.39241800      -1.30860200       2.22855300
O        1.21456900      -0.68916100      -0.51206300
O        0.19584500       0.36908500       1.65995600
C        1.70862100       1.56481300      -0.26630300
C        0.27079200       1.84652200      -0.12644100
C       -1.76500700       1.55334600       1.14519500
C        3.44293700      -0.05285000      -0.74186700
C        4.42708200       0.96451700      -0.70209000
C        2.64588400       2.58057200      -0.26957400
C        3.98853800       2.27277200      -0.46012000
C       -0.36648600       2.76354900      -0.94234300
C       -1.71982900       3.02233800      -0.75790900
C       -2.45695400       2.43269000       0.27813000
H        2.32137100       3.59988000      -0.09815600
H        4.70009800       3.08580000      -0.41916300
H        0.19517400       3.24063500      -1.73617300
H       -2.19924700       3.70728100      -1.44366000
C       -3.95814200       2.75883300       0.44255400
C       -2.29783100       0.91506400       2.38709900
N        2.13987200       0.28882200      -0.47824300
N       -0.45542100       1.25212800       0.86193700
C        3.63289700      -1.49758400      -1.08211800
C        5.92973300       0.67498800      -0.90115400
C        6.42336400      -0.35635100       0.14606300
C        6.20669600       0.21323500      -2.35480700
C        6.78631800       1.94308800      -0.68434800
H        5.92166600      -1.32279100       0.09122700
H        7.49570000      -0.52144200      -0.00715200
H        6.27686800       0.04329600       1.15586500
H        7.27959200       0.01652500      -2.46029300
H        5.66803400      -0.68945200      -2.64730700
H        5.93330300       1.01176000      -3.05411300
H        6.65520700       2.35257600       0.32374000
H        7.83848500       1.66734400      -0.80465800
H        6.55611900       2.72171200      -1.42024300
C       -4.81537900       1.46860300       0.50858100
C       -4.17275700       3.65900100       1.68598100
C       -4.49463600       3.55456700      -0.76972700
H       -4.68982700       0.89090100      -0.41241400
H       -4.58705700       0.81928700       1.35289500
H       -5.86761100       1.76253100       0.58947100
H       -4.34115300       3.00925400      -1.70791600
H       -5.57016300       3.70088000      -0.63141800
H       -4.03188800       4.54434100      -0.84951200
H       -3.84966800       3.20131100       2.62300600
H       -3.62588300       4.60058300       1.56239900
H       -5.24093000       3.88866400       1.77144000
H        2.95215300      -1.76915400      -1.89589900
H        4.65131000      -1.71290700      -1.37848900
H        3.36666400      -2.11924400      -0.22318500
H       -2.48686800      -0.15019500       2.22792200
H       -1.54906700       0.97801300       3.18082000
H       -3.21374300       1.39337900       2.71202600
