75
Properties=species:S:1:pos:R:3 pbc="F F F"
Si       0.46837300      -1.31291700       1.27073700
O       -1.26959900      -1.32047800       0.37575400
C       -1.56645700      -1.35969100      -0.84637500
C       -2.91284600      -1.61368800      -1.29318900
H       -0.80505700      -1.13505200      -1.59868500
C       -3.93663300      -1.97637000      -0.39098200
C       -3.19476300      -1.46770600      -2.66790600
C       -5.22402800      -2.18541200      -0.86540200
H       -3.70191000      -2.09104700       0.66193900
C       -4.49090600      -1.66781200      -3.13309400
H       -2.39432500      -1.19837300      -3.35269300
C       -5.50224500      -2.02683700      -2.23258500
H       -6.01753600      -2.46741600      -0.18019300
H       -4.71687500      -1.55187800      -4.18858300
H       -6.51323500      -2.18766100      -2.59660400
C       -0.29575700      -4.10571900      -1.47149000
C        0.28092400      -3.67085900      -0.37145700
H        0.19641400      -4.02401200      -2.44015900
H       -1.26764700      -4.59696400      -1.44173900
C        0.77478500      -3.13790800       0.70633200
H        1.41070700      -3.71877600       1.37468400
Cl      -0.61681600      -1.95161400       3.13402000
Cl       2.41600100      -1.07472300       2.34281800
O        1.16016400      -0.69172900      -0.39990700
O        0.11936400       0.48302200       1.69740000
C        1.64759200       1.57111600      -0.29477600
C        0.20739400       1.84693400      -0.18030100
C       -1.85529900       1.57604700       1.05579100
C        3.38052200      -0.06665600      -0.70542300
C        4.36134400       0.95386300      -0.73662400
C        2.58197900       2.58731800      -0.36022500
C        3.92254300       2.27197500      -0.55355200
C       -0.42366800       2.71425300      -1.05280100
C       -1.78220400       2.96922800      -0.90529600
C       -2.53472500       2.41402200       0.13730400
H        2.25702400       3.61359900      -0.23897500
H        4.63242400       3.08739200      -0.56610300
H        0.14835200       3.15805100      -1.85854000
H       -2.25424600       3.62213900      -1.62652400
C       -4.04171000       2.72836100       0.25353400
C       -2.40717000       0.96911200       2.30411400
N        2.08103700       0.28782200      -0.44421000
N       -0.53108400       1.29012400       0.82306400
C        3.56717100      -1.52819100      -0.96573600
C        5.86053100       0.65833900      -0.95079000
C        6.38387300      -0.30387500       0.14663500
C        6.10756100       0.10966100      -2.37898700
C        6.71509100       1.94106600      -0.83164100
H        5.88196200      -1.27148400       0.17003500
H        7.45155500      -0.47936800      -0.02608000
H        6.26554400       0.16063800       1.13208500
H        7.18066600      -0.07641700      -2.49953100
H        5.57786000      -0.81872200      -2.59952000
H        5.80317100       0.85775600      -3.12012900
H        6.60823600       2.40854700       0.15364600
H        7.76544900       1.66338600      -0.96342600
H        6.46082900       2.67390000      -1.60562600
C       -4.87543800       1.42233500       0.26986600
C       -4.31222400       3.61357100       1.49742400
C       -4.54769500       3.53365100      -0.96491800
H       -4.73227100       0.87815700      -0.66942600
H       -4.63369200       0.74611600       1.08899100
H       -5.93472200       1.68946800       0.35358400
H       -4.37359700       2.99629000      -1.90409500
H       -5.62622600       3.67940300      -0.85100200
H       -4.08074600       4.52295900      -1.02488200
H       -4.00963400       3.15901100       2.44218100
H       -3.78040100       4.56637600       1.39567800
H       -5.38669900       3.82214500       1.54985700
H        2.89926200      -1.83725300      -1.77733900
H        4.58913400      -1.76382500      -1.23242900
H        3.27764800      -2.10397400      -0.08281800
H       -3.39262600       1.35311500       2.53425300
H       -2.45338200      -0.11901300       2.21181500
H       -1.72913000       1.17842400       3.13713400
