75
Properties=species:S:1:pos:R:3 pbc="F F F"
Si       0.01534900      -1.07393800       0.55121800
O        1.60998300      -1.77022900      -0.26068200
C        2.53509800      -2.41276300       0.30073300
C        3.77224400      -2.71830300      -0.37039000
H        2.38815400      -2.78492900       1.31956100
C        4.01830800      -2.31745500      -1.70264200
C        4.75058800      -3.43834700       0.34726100
C        5.23185400      -2.63330000      -2.29869200
H        3.25315600      -1.77246700      -2.24578800
C        5.96497700      -3.74815500      -0.25737400
H        4.54709500      -3.73981000       1.37135400
C        6.20422100      -3.34529400      -1.57723500
H        5.42983500      -2.33264200      -3.32310300
H        6.72284000      -4.29983500       0.29019100
H        7.15185600      -3.58837600      -2.04994300
C        3.64484700      -0.11684100       2.12858900
C        2.33613400      -0.05818600       2.02038200
H        4.12682300      -0.87441800       2.74517600
H        4.28782200       0.60535000       1.62794200
C        1.04536300      -0.05453700       1.85353800
H        0.44267500       0.53666700       2.54536800
Cl      -1.08113200      -2.23018300      -1.03594300
Cl      -0.21049900      -2.79845500       2.00651900
O       -1.51845100      -0.25253900       1.24526500
O        0.08362500       0.24482300      -0.80684000
C       -2.29832700       1.38485100      -0.19927300
C       -1.03119700       2.12224000      -0.04460800
C        1.34821300       2.18752600      -0.48153300
C       -3.68545700      -0.50083000       0.42012600
C       -4.74494000      -0.00594200      -0.38030900
C       -3.33185900       1.90256500      -0.95627800
C       -4.52930800       1.20176100      -1.05529100
C       -1.00007900       3.44514600       0.35304800
C        0.21451700       4.12418000       0.38224100
C        1.41226700       3.53136100      -0.03871200
H       -3.18295100       2.83861800      -1.48101400
H       -5.30699800       1.62318100      -1.67744900
H       -1.92271000       3.92825500       0.65173000
H        0.20903800       5.14745300       0.73190000
C        2.72859700       4.33597800      -0.01233200
C        2.44586400       1.37259100      -1.08895000
N       -2.50611600       0.19931600       0.44509100
N        0.14552600       1.53434600      -0.40790500
C       -3.69770900      -1.70261100       1.31048800
C       -6.09104300      -0.74560600      -0.52552700
C       -5.86330500      -2.16287700      -1.11189100
C       -6.84399300      -0.78164900       0.82959200
C       -7.03305100      -0.02281300      -1.51486500
H       -5.20748600      -2.79446900      -0.51186700
H       -6.83363200      -2.66414900      -1.19918500
H       -5.42697000      -2.08098600      -2.11385300
H       -7.78538100      -1.32491200       0.69020600
H       -6.29130600      -1.26422000       1.63674400
H       -7.08089800       0.24061300       1.14655100
H       -6.59108100       0.05056100      -2.51476600
H       -7.95597200      -0.60576000      -1.59290200
H       -7.29740300       0.98137200      -1.16487200
C        3.80478700       3.60126300       0.82679900
C        3.21101000       4.62279700      -1.45721200
C        2.53609800       5.71505800       0.65874000
H        3.44226200       3.45057500       1.84971600
H        4.09638700       2.63111500       0.42415600
H        4.70160900       4.22905000       0.86776900
H        2.17461300       5.61678800       1.68869500
H        3.50686100       6.21931600       0.68404800
H        1.84376600       6.34943700       0.09443000
H        3.38782300       3.72603200      -2.05376900
H        2.46671400       5.23438700      -1.97985500
H        4.14852000       5.18801200      -1.40812100
H       -3.48951500      -1.38738900       2.33939600
H       -4.64838900      -2.21879900       1.28003900
H       -2.89813800      -2.38964900       1.02284700
H        3.33104000       1.96666000      -1.27734400
H        2.70527100       0.53814500      -0.43334900
H        2.09210200       0.94028400      -2.03025900
