75
Properties=species:S:1:pos:R:3 pbc="F F F"
Si       0.17831600      -0.87075800       0.65846200
O        1.90515600      -1.37744100       0.02811100
C        2.27984600      -2.46873300      -0.47808700
C        3.67327700      -2.78159500      -0.66706000
H        1.53206400      -3.18072200      -0.83677300
C        4.70089000      -1.91997000      -0.22308700
C        3.99291300      -3.98608800      -1.32905900
C        6.02711200      -2.26687300      -0.44386700
H        4.44145900      -1.00079600       0.29206300
C        5.32467800      -4.32436800      -1.54847600
H        3.19186800      -4.64062500      -1.66245000
C        6.33886000      -3.46584200      -1.10590800
H        6.82468100      -1.61327400      -0.10371000
H        5.57654800      -5.24922600      -2.05820000
H        7.37908200      -3.73060100      -1.27449300
C        1.66415600      -4.39071500       1.85626100
C        0.84617100      -3.36430100       1.94282200
H        1.38911500      -5.28801400       1.30259300
H        2.63143900      -4.38607300       2.35754600
C        0.08944100      -2.30691400       1.94394500
H       -0.64747300      -2.16629900       2.73532500
Cl       1.26031200       0.45874500       2.17786900
Cl      -0.86128600      -2.09300800      -0.98921700
O        0.25796100       0.42136000      -0.68045100
O       -1.39928000      -0.10658400       1.29595000
C       -1.09488000       2.22335800      -0.13309400
C       -2.28054200       1.35954000      -0.27244800
C       -3.51667900      -0.59239200       0.45166400
C        1.29364300       2.50080100      -0.42370000
C        1.19044000       3.87892900      -0.11477800
C       -1.22090700       3.57245900       0.14118000
C       -0.08687300       4.37669600       0.17177300
C       -3.33471300       1.72585900      -1.08946700
C       -4.46146900       0.91456000      -1.16507100
C       -4.58977800      -0.25698700      -0.40809700
H       -2.20383700       3.97917300       0.34554600
H       -0.21862000       5.42090000       0.41956200
H       -3.25457100       2.63206600      -1.67759600
H       -5.25394500       1.21647400      -1.83597400
C       -5.85462200      -1.13094000      -0.53862400
C       -3.44084100      -1.73019100       1.42034300
N        0.15675900       1.73595500      -0.37239700
N       -2.40490200       0.21117300       0.45316800
C        2.51799300       1.75026800      -0.84290400
C        2.41566600       4.81602100      -0.07100400
C        3.45484200       4.29724100       0.95597000
C        3.02376600       4.98753500      -1.48714100
C        2.02725800       6.23618300       0.39963900
H        3.84686700       3.30463500       0.73275400
H        4.29799100       4.99669800       0.98118500
H        3.00388500       4.26554900       1.95419900
H        3.89086700       5.65364000      -1.41511700
H        3.35160600       4.05563500      -1.95058300
H        2.28674900       5.45320400      -2.15145000
H        1.58369500       6.22338800       1.40155500
H        2.93774200       6.84197300       0.43935900
H        1.33143600       6.72072800      -0.29464500
C       -5.47429100      -2.56261500      -0.99624100
C       -6.65643800      -1.13177200       0.78807200
C       -6.81497500      -0.58159800      -1.61737100
H       -4.97843000      -2.51832000      -1.97259500
H       -4.81426500      -3.09194400      -0.30828600
H       -6.39356000      -3.14948200      -1.10282000
H       -6.33677000      -0.54272800      -2.60252600
H       -7.67426800      -1.25608000      -1.68265900
H       -7.18860900       0.41576000      -1.35993300
H       -6.09862100      -1.50801500       1.64691200
H       -6.98803900      -0.11308900       1.01981100
H       -7.54395500      -1.76098100       0.65741600
H        2.31971800       1.23071900      -1.78630100
H        3.36894500       2.40726900      -0.96726900
H        2.75427300       0.98651700      -0.09787200
H       -2.60631500      -2.38512500       1.15334000
H       -3.23946400      -1.33707900       2.42272800
H       -4.35652700      -2.30670200       1.44240000
