75
Properties=species:S:1:pos:R:3 pbc="F F F"
Si       0.46673700      -1.47741200       0.94829300
O       -1.10679100      -1.31892000      -0.18464300
C       -1.89371500      -2.23449100      -0.53729300
C       -3.08200600      -1.97084300      -1.30686800
H       -1.64641900      -3.27391800      -0.30342600
C       -3.39709000      -0.67410000      -1.76879200
C       -3.91688700      -3.06197600      -1.62985200
C       -4.53295600      -0.48020300      -2.54188500
H       -2.74000100       0.15316900      -1.52264100
C       -5.05988300      -2.85629600      -2.39593400
H       -3.65979100      -4.05547800      -1.27232500
C       -5.36527500      -1.56776700      -2.85209900
H       -4.77898800       0.51076000      -2.91068400
H       -5.70902800      -3.69037800      -2.64344900
H       -6.25368000      -1.40783200      -3.45671500
C       -3.09181400      -2.89731200       2.27786000
C       -1.81435600      -2.59886400       2.37752700
H       -3.41970400      -3.86562400       1.90136700
H       -3.86352700      -2.19770200       2.59774900
C       -0.55609300      -2.26815200       2.39687200
H        0.02924200      -2.48078700       3.29236600
Cl       2.34773600      -1.32848800       2.16210500
Cl       0.98714900      -3.48899700       0.05229500
O        1.21511100      -0.69186500      -0.58245200
O        0.05557300       0.27885000       1.55820700
C        1.74028700       1.53720600      -0.21385800
C        0.30652700       1.85544100      -0.12821100
C       -1.80788400       1.57594400       1.00915500
C        3.46684500      -0.07841200      -0.72634500
C        4.46292700       0.92224200      -0.60922500
C        2.69353200       2.53507800      -0.12936500
C        4.03646300       2.21909600      -0.29833800
C       -0.23698000       2.87272500      -0.89327400
C       -1.56386400       3.24159700      -0.70958800
C       -2.37714300       2.62898000       0.25291900
H        2.37732400       3.54795700       0.08826700
H        4.75704400       3.01796900      -0.19034800
H        0.38793700       3.36900900      -1.62603300
H       -1.95675800       4.03767600      -1.32633200
C       -3.81722200       3.13848400       0.48345200
C       -2.46685000       0.78043000       2.08811900
N        2.16220400       0.26659300      -0.47224300
N       -0.49942700       1.22400000       0.77338500
C        3.65847600      -1.50213200      -1.13714000
C        5.96563100       0.62775800      -0.80429900
C        6.43484300      -0.48322800       0.16985700
C        6.25777100       0.27326200      -2.28492800
C        6.83222400       1.86677500      -0.48285600
H        5.92272300      -1.43683900       0.04070200
H        7.50658100      -0.65052000       0.01472900
H        6.28388200      -0.15565400       1.20473700
H        7.32862500       0.06575300      -2.39047300
H        5.70765200      -0.59429900      -2.65225200
H        6.00831200       1.12726100      -2.92506200
H        6.68543800       2.20588300       0.54881700
H        7.88313400       1.58640100      -0.60299500
H        6.62643200       2.69812000      -1.16644400
C       -4.86419900       2.02217500       0.24115100
C       -3.93230700       3.75074400       1.90436400
C       -4.18411900       4.27497800      -0.49830700
H       -4.86670800       1.74180100      -0.81650000
H       -4.70505100       1.11493700       0.82423100
H       -5.85494300       2.41802500       0.49067500
H       -4.13111000       3.94303800      -1.54132100
H       -5.21429900       4.58180100      -0.29251500
H       -3.53923800       5.15091300      -0.36766100
H       -3.70283500       3.05341500       2.71138900
H       -3.25209000       4.60557900       1.99370600
H       -4.95757000       4.11021800       2.04657900
H        2.94184100      -1.75372100      -1.92470300
H        4.66466400      -1.68529500      -1.49164200
H        3.44279600      -2.16474100      -0.29486400
H       -2.55735000      -0.26148100       1.77053200
H       -1.84191400       0.77985000       2.98600500
H       -3.44986100       1.16225400       2.33184500
