81
Properties=species:S:1:pos:R:3 pbc="F F F"
Si       0.07958900       0.93464000       0.85452600
O        1.61532100       1.94405700       0.29050100
C        1.97721900       3.10333600       0.61133900
C        3.03020500       3.79739400      -0.08209400
H        1.48619500       3.60649000       1.45144000
C        3.69792000       3.22718100      -1.18980000
C        3.38278600       5.08582000       0.37507800
C        4.70427200       3.94313600      -1.82309200
H        3.41507600       2.23694200      -1.52919500
C        4.39415500       5.79513000      -0.26588500
H        2.85797300       5.51329500       1.22555800
C        5.05225400       5.22389900      -1.36210300
H        5.22406100       3.51516700      -2.67497000
H        4.67067300       6.78595400       0.08100400
H        5.84134200       5.77794600      -1.86313200
C       -0.95597100       4.45157700      -0.70070000
C       -1.00203500       3.14374100      -0.62277300
H       -1.67023500       5.07433200      -0.16346700
H       -0.20961000       4.95231700      -1.31655600
C       -0.97758500       1.84805100      -0.49048900
H       -1.51121300       1.24297000      -1.22295800
Cl       1.46699400      -0.22845200       2.16603800
Cl      -0.45599000       2.26548500       2.54863200
O       -1.25963400      -0.34068800       1.33750200
O        0.53001800      -0.23571200      -0.67259600
C       -1.68214800      -1.67648700      -0.49155200
C       -0.36480200      -2.30454800      -0.23931200
C        2.01619800      -2.03903800      -0.45764600
C       -3.35856500      -0.13508300       0.29272000
C       -4.10221200      -0.28407700      -0.89703200
C       -2.48683800      -2.03147000      -1.57442300
C       -3.64584200      -1.28368200      -1.77134600
C       -0.20832900      -3.63571300       0.13583200
C        1.09542300      -4.08101600       0.35089000
C        2.24546600      -3.31534100       0.10297800
H       -4.21221200      -1.49630500      -2.66786600
H        1.20413900      -5.08453400       0.73832900
C        3.61618100      -3.89999100       0.54690300
C        3.04493100      -1.15960700      -1.20493500
N       -2.12039800      -0.72549600       0.37480300
N        0.73784000      -1.54215000      -0.46634200
C       -3.87271800       0.50480800       1.60295000
C       -5.30381700       0.58452500      -1.36238800
C       -6.63763500      -0.13326900      -1.05474500
C       -5.29154700       2.01954100      -0.78216700
C       -5.21145400       0.76641700      -2.90691600
H       -7.45786700       0.46579400      -1.46616600
H       -6.65753900      -1.11909100      -1.53329700
H       -6.80196000      -0.25805300       0.01691300
H       -4.30645500       2.48281300      -0.90260700
H       -6.01609700       2.61532500      -1.34594200
H       -5.58362000       2.07194600       0.26342700
H       -5.41543200      -0.15456200      -3.46002000
H       -5.97638100       1.49058800      -3.20247700
H       -4.23132600       1.15600300      -3.20349700
F       -3.56333000       1.80616700       1.72017700
F       -3.41534700      -0.14508500       2.69292300
F       -5.22353000       0.37674800       1.65582900
F        2.49240700      -0.54459200      -2.27694500
F        4.02699300      -1.93832900      -1.72003700
F        3.61394800      -0.21871500      -0.42885300
C        4.23133200      -4.76657200      -0.57699800
C        4.59991700      -2.80730900       1.03315300
C        3.40064200      -4.83228600       1.77373100
H        3.54189600      -5.57414300      -0.84900600
H        4.46729100      -4.19142600      -1.47277100
H        5.15622600      -5.21793700      -0.19982100
H        5.00991500      -2.19541100       0.23445900
H        4.11560200      -2.15703900       1.76923400
H        5.44444100      -3.30460400       1.52058800
H        2.90001700      -5.76908600       1.51101300
H        4.38655500      -5.09841200       2.16633200
H        2.83527200      -4.32967500       2.56593800
C       -2.09922800      -3.10810900      -2.54901300
H       -2.45468500      -2.84970100      -3.55007100
H       -1.01822300      -3.26223800      -2.58271200
H       -2.56954800      -4.05601100      -2.26141500
C       -1.37871800      -4.54942800       0.37058000
H       -1.53461500      -5.18717800      -0.50787800
H       -1.17416100      -5.20335100       1.22299600
H       -2.30156000      -3.99629400       0.56104500
