81
Properties=species:S:1:pos:R:3 pbc="F F F"
Si      -0.18095200      -0.98165400       0.66825700
O       -1.77606300      -1.76518600       0.05039300
C       -1.96703300      -2.91528600      -0.43263800
C       -3.28769900      -3.46749100      -0.57760600
H       -1.11491400      -3.49146700      -0.80240900
C       -4.43639300      -2.78935200      -0.11137400
C       -3.41004400      -4.72374400      -1.20951500
C       -5.68659300      -3.36864300      -0.28078300
H       -4.32453100      -1.82747700       0.37674800
C       -4.66750100      -5.29460200      -1.37744200
H       -2.51701900      -5.23592000      -1.55783700
C       -5.80250800      -4.61766000      -0.91289700
H       -6.57598500      -2.85790200       0.07581900
H       -4.76882000      -6.26012300      -1.86324400
H       -6.78459700      -5.06453200      -1.04110600
C       -1.07329300      -4.63122400       1.95597400
C       -0.43950100      -3.48141900       2.03797100
H       -0.63228300      -5.48448100       1.44146300
H       -2.04653400      -4.77418600       2.42412700
C        0.12713100      -2.31180700       2.02506500
H        0.80717300      -2.01657700       2.82325000
Cl       1.07782100      -2.05181700      -0.90417500
Cl      -1.46084200       0.24518900       2.09621100
O       -0.44406600       0.26569900      -0.74763400
O        1.28100000       0.08094500       1.28288900
C        0.61028400       2.22931300      -0.16924200
C        1.88365000       1.51571900      -0.41600000
C        3.42333000      -0.15980700       0.36333600
C       -1.77969500       2.17384500      -0.45109400
C       -1.92029700       3.42926100       0.17844000
C        0.54960100       3.54841300       0.27459700
C       -0.71926600       4.08665500       0.48521300
C        2.76389600       1.88126100      -1.43493500
C        3.89325000       1.08429700      -1.60944400
C        4.24932200       0.01934200      -0.76526200
H       -0.75712400       5.07676400       0.91926200
H        4.51829200       1.31221200      -2.46171400
C        5.42578600      -0.89625600      -1.20312100
C        3.79114300      -0.90915200       1.66438400
N       -0.54596900       1.57822500      -0.45994500
N        2.21549700       0.48958800       0.40671600
C       -2.85409500       1.45735500      -1.30385100
C       -3.24873700       4.09131100       0.63927200
C       -3.73421700       5.12492800      -0.40260600
C       -4.35429900       3.06022900       0.97294400
C       -2.98628700       4.86002600       1.96797100
H       -4.63071000       5.61812000      -0.00993100
H       -2.96576100       5.88937300      -0.56587400
H       -3.98246700       4.66682000      -1.36125700
H       -3.96061500       2.26607500       1.61597400
H       -5.14750900       3.57962300       1.51948100
H       -4.81443800       2.61298700       0.09529200
H       -2.37516000       5.75615700       1.82751100
H       -3.95359800       5.19267100       2.35611900
H       -2.51374400       4.21488600       2.71646000
F       -3.57401800       0.54820400      -0.62389800
F       -2.31132800       0.84598500      -2.38021600
F       -3.70515800       2.38041900      -1.81562300
F        3.32118300      -2.16878800       1.71282700
F        3.34331300      -0.24804100       2.75684300
F        5.13697600      -0.94820600       1.80543800
C        6.77790400      -0.32835800      -0.71413400
C        5.22985100      -2.36919200      -0.76410700
C        5.47815000      -0.93546700      -2.75842100
H        6.92241100       0.68764500      -1.09936300
H        6.85484300      -0.30564500       0.37356600
H        7.58199300      -0.96141200      -1.10641000
H        5.40302100      -2.54012300       0.29527000
H        4.22367500      -2.71661300      -1.02211600
H        5.95357400      -2.98331900      -1.30903100
H        5.81682100       0.00768700      -3.19735700
H        6.20595700      -1.69952000      -3.04728900
H        4.50524400      -1.20320800      -3.18490400
C        2.47987900       3.02979500      -2.36241500
H        2.95338700       2.85283900      -3.33145200
H        1.40667600       3.17678400      -2.51068800
H        2.89386700       3.95692300      -1.94890300
C        1.77622900       4.35340700       0.60303000
H        2.67349900       3.73544000       0.67506900
H        1.93710600       5.11582000      -0.16823900
H        1.62890500       4.87281600       1.55472400
