81
Properties=species:S:1:pos:R:3 pbc="F F F"
Si       0.03585700      -1.04329000       1.09224500
O        1.61949400      -2.15249800       0.80911000
C        1.98754400      -2.60519500      -0.30301400
C        3.19464600      -3.36425000      -0.47591300
H        1.36934700      -2.41627900      -1.18786700
C        4.05390300      -3.66390400       0.60621600
C        3.51306800      -3.79987600      -1.78092800
C        5.21167000      -4.39283100       0.37485400
H        3.79667100      -3.31812800       1.60215200
C        4.67742600      -4.52798600      -2.00284800
H        2.84421200      -3.55936700      -2.60312400
C        5.52274800      -4.82378300      -0.92612400
H        5.87937600      -4.63036000       1.19732900
H        4.92903900      -4.86574000      -3.00335600
H        6.43181600      -5.39355800      -1.09812800
C       -1.51914700      -1.81589500      -2.64323600
C       -1.27624800      -1.97777900      -1.36561300
H       -2.40124600      -1.28065100      -2.98888400
H       -0.84607600      -2.21398300      -3.40134900
C       -1.02548300      -2.14401500      -0.09463500
H       -1.43069000      -3.03608500       0.38475500
Cl       1.37766900       0.24825400       2.33410400
Cl      -0.47076300      -2.26351000       2.86965000
O        0.56975100      -0.03372000      -0.50201100
O       -1.31562200       0.26494600       1.42236900
C       -0.35062800       2.06094300      -0.30366400
C       -1.66354800       1.41792400      -0.53680400
C       -3.41105100       0.03193800       0.37044800
C        2.03786200       1.79391400      -0.42511300
C        2.24505900       3.12200900       0.00917500
C       -0.20967400       3.42328400      -0.05674400
C        1.08479000       3.89837400       0.14786400
C       -2.42696500       1.68363400      -1.66914900
C       -3.62760600       0.98967200      -1.80032300
C       -4.15768200       0.12839500      -0.82722500
H        1.17546000       4.93584100       0.43770300
H       -4.16694600       1.13687500      -2.72524000
C       -5.43977000      -0.67389200      -1.19555900
C       -3.90713200      -0.53934500       1.72222100
N        0.76156600       1.28736100      -0.42297600
N       -2.15045200       0.57615700       0.41224900
C        3.09164500       0.84825200      -1.04244700
C        3.59851200       3.75560400       0.43893900
C        4.53061500       2.72618200       1.12473400
C        4.28833400       4.46544600      -0.74944500
C        3.33450600       4.84785100       1.51586800
H        5.36061800       3.27325600       1.58310400
H        3.99356300       2.19370400       1.91715000
H        4.96644200       1.99870100       0.44484000
H        3.62340400       5.23211300      -1.16367800
H        5.19169200       4.96140900      -0.37641800
H        4.57452400       3.78141900      -1.54801100
H        2.72938300       4.46052500       2.34269300
H        4.30446800       5.16171300       1.91241600
H        2.85602600       5.74115400       1.10327500
F        2.57743000       0.15645700      -2.09021000
F        3.59855600      -0.03968500      -0.16437800
F        4.11748300       1.55738900      -1.56168900
F       -3.46402100       0.18671300       2.76940700
F       -3.54510800      -1.82300800       1.90254200
F       -5.25662400      -0.46727700       1.79455000
C       -5.40420300      -2.12074400      -0.64219100
C       -6.71519800       0.09024400      -0.76276500
C       -5.53696600      -0.83381400      -2.74021200
H       -4.46740400      -2.61323000      -0.92471500
H       -5.52905400      -2.19072500       0.43478700
H       -6.23001600      -2.67632500      -1.09773200
H       -6.78692300       0.23792000       0.31371700
H       -6.74614100       1.06971800      -1.25396000
H       -7.58765700      -0.48495200      -1.09303200
H       -4.62225500      -1.26100000      -3.16397900
H       -6.36264900      -1.52020500      -2.94882500
H       -5.76929800       0.10608400      -3.24983500
C       -1.96493500       2.61816000      -2.75198100
H       -2.35696200       3.62539700      -2.56703700
H       -0.87517500       2.68180900      -2.80353900
H       -2.34953500       2.28322700      -3.71903800
C       -1.38627400       4.35214100       0.05752500
H       -1.21763600       5.06355000       0.87114400
H       -1.49346500       4.92891300      -0.86902700
H       -2.32143500       3.81898500       0.24237400
