87
Properties=species:S:1:pos:R:3 pbc="F F F"
Si      -0.15172400      -0.99427500      -0.47937700
O       -1.79647300      -1.67684400       0.25091800
C       -2.73138000      -2.18595700      -0.41634300
C       -3.88879800      -2.76887400       0.20373600
H       -2.68116500      -2.16727600      -1.50959100
C       -4.03204500      -2.83520500       1.60839900
C       -4.90105700      -3.27507600      -0.64028000
C       -5.17738000      -3.39994000       2.15135100
H       -3.24219200      -2.44768500       2.24335200
C       -6.04614100      -3.83881900      -0.08650800
H       -4.77465700      -3.21849200      -1.71824100
C       -6.18228800      -3.90004400       1.30601900
H       -5.29845600      -3.45773400       3.22874900
H       -6.82897400      -4.22971400      -0.72896400
H       -7.07579500      -4.34117800       1.73920200
C       -0.92599800      -4.84426100      -1.40168700
C       -0.44122600      -3.64319500      -1.61446600
H       -1.94404200      -5.10527000      -1.68918800
H       -0.31874100      -5.62393200      -0.94258500
C        0.00929600      -2.42933200      -1.76220200
H        0.51154600      -2.15645000      -2.69052800
Cl      -1.31545400       0.21908400      -2.08267700
Cl       0.83527400      -2.01963300       1.25114100
O       -0.41685900       0.42356800       0.75949100
O        1.44196100      -0.26083100      -1.13722400
C        0.86264200       2.17126500      -0.04265600
C        2.08351100       1.41870400       0.30471300
C        3.62928200      -0.35477700      -0.25081500
C       -1.49129300       2.49455400       0.36464200
C       -1.44126300       3.74571600      -0.30747100
C        0.95538800       3.42387100      -0.61343500
C       -0.20308500       4.16611600      -0.80683500
C        2.98866300       1.95585700       1.19570800
C        4.18925000       1.29658600       1.42258400
C        4.55859700       0.15614000       0.69923600
H        1.92569700       3.79660600      -0.91856800
H       -0.11316600       5.11183900      -1.32268900
H        2.74278400       2.87735000       1.70981600
H        4.85647900       1.71766000       2.16093100
C        5.95979800      -0.46145700       0.95657000
C        3.96406600      -1.43051300      -1.26920600
N       -0.36269400       1.71029700       0.33259500
N        2.39418100       0.25137900      -0.32447600
C       -2.62541700       2.07627100       1.28107900
C       -2.68327300       4.64989300      -0.51280000
C       -3.86855800       3.84246900      -1.10188600
C       -3.06127200       5.37828200       0.80346100
C       -2.39539000       5.76648200      -1.54644800
H       -4.23482700       3.03991600      -0.46130100
H       -4.70059300       4.53226000      -1.28118500
H       -3.57346000       3.40186000      -2.06072900
H       -3.91663000       6.03437100       0.60573500
H       -3.33294600       4.70910300       1.62262000
H       -2.22128200       5.99790700       1.13751900
H       -2.04777600       5.35260200      -2.49950500
H       -3.32932900       6.30732200      -1.72731400
H       -1.66093600       6.49146800      -1.17926200
C        6.62686200       0.16207800       2.20732100
C        5.87658500      -1.98116900       1.25103400
C        6.90995500      -0.14934400      -0.22945100
H        6.00381000       0.04157000       3.10073900
H        7.57417900      -0.35781600       2.37910700
H        6.85555000       1.22432600       2.06869300
H        7.01281900       0.93544100      -0.34593900
H        7.89786800      -0.56750300      -0.00464300
H        6.57924000      -0.56172300      -1.18513700
H        5.19383100      -2.16438900       2.08841300
H        5.54978400      -2.58557300       0.40636900
H        6.87395400      -2.33107000       1.53908500
C       -2.10938100       2.01142300       2.73890800
H       -3.31922300       2.90578000       1.25262200
C       -3.43912000       0.82183200       0.92111600
H       -2.97191000       1.86140100       3.39746800
H       -1.41614800       1.17796500       2.87663000
H       -1.61390700       2.94613300       3.02443700
H       -4.43212100       0.92080700       1.37273000
H       -3.55151000       0.70433300      -0.15976400
H       -2.96240200      -0.06706400       1.32585900
C        3.31311900      -2.80346100      -1.03204000
C        3.78631600      -0.94472000      -2.72694400
H        5.03031400      -1.58468600      -1.15695100
H        2.24222500      -2.77955100      -1.21396200
H        3.77550600      -3.51616300      -1.72495600
H        3.47859700      -3.14885000      -0.00839700
H        2.73755500      -0.88838100      -3.02032400
H        4.24931100       0.03785200      -2.87308700
H        4.29511400      -1.66341800      -3.37860800
