87
Properties=species:S:1:pos:R:3 pbc="F F F"
Si       0.01286000      -1.03858800       0.83267000
O        1.74415400      -1.95125400       0.56005800
C        2.21036500      -2.36089900      -0.52884900
C        3.50399100      -2.97956400      -0.63628200
H        1.62132200      -2.23929400      -1.44535600
C        4.33839500      -3.16441700       0.48927400
C        3.93567800      -3.38420600      -1.91791300
C        5.58704600      -3.74683900       0.32410500
H        3.99133000      -2.84479900       1.46643000
C        5.18935200      -3.96769400      -2.07359200
H        3.28320200      -3.23247900      -2.77402500
C        6.01152700      -4.14724800      -0.95425900
H        6.23767300      -3.89315600       1.18088200
H        5.52908600      -4.28108300      -3.05587400
H        6.99095600      -4.60187900      -1.07513500
C       -0.77417900      -4.48267600      -1.13947200
C       -0.80448800      -3.18916200      -0.93476200
H        0.02432400      -4.94627400      -1.71765000
H       -1.54889900      -5.13290500      -0.73458900
C       -0.80616800      -1.90912700      -0.68742400
H       -1.30031800      -1.25615000      -1.40865200
Cl       1.06145500       0.15890300       2.42340800
Cl      -0.40837700      -2.64098300       2.32878000
O        0.61521700       0.24905300      -0.49233900
O       -1.52273700      -0.05418100       1.27386800
C       -0.58170300       2.16353600      -0.06593200
C       -1.83314600       1.46570600      -0.43434100
C       -3.62421400      -0.04041000       0.19037300
C        1.82329800       2.27561200      -0.28327700
C        1.79359500       3.65260700       0.08208400
C       -0.62945200       3.49099600       0.30231400
C        0.55424200       4.20654700       0.42402800
C       -2.58886800       1.95547900      -1.47843900
C       -3.84779600       1.42200700      -1.72105200
C       -4.42108400       0.46012900      -0.88128000
H       -1.59149000       3.95769400       0.47616100
H        0.48236400       5.23536900       0.74497700
H       -2.18968400       2.75817200      -2.08653500
H       -4.39816600       1.81142900      -2.56511300
C       -5.89749900       0.04645200      -1.13976200
C       -4.13903900      -1.01521300       1.23290400
N        0.63663400       1.57645100      -0.25137700
N       -2.33448100       0.43291600       0.30609400
C        3.06906200       1.56559900      -0.78602900
C        3.03889900       4.58221200       0.07753800
C        4.20766300       4.02065500       0.92747900
C        3.47377700       4.86447100      -1.38519400
C        2.71123500       5.96616100       0.69187100
H        4.70606700       3.15681500       0.48881400
H        4.96300700       4.80636500       1.03721000
H        3.85295900       3.74577200       1.92690900
H        4.34287300       5.53196600      -1.36925900
H        3.74632500       3.96868700      -1.94823900
H        2.66197100       5.36789100      -1.92242600
H        2.35864700       5.87879300       1.72579100
H        3.63069900       6.55895000       0.69460600
H        1.96870600       6.51451600       0.10232100
C       -6.41954900       0.63015000      -2.47648500
C       -6.08260800      -1.48841500      -1.26151500
C       -6.80529600       0.64769200      -0.03427900
H       -5.81637600       0.29711300      -3.32870900
H       -7.44279900       0.27190300      -2.62245700
H       -6.45401100       1.72461900      -2.46364500
H       -6.74417700       1.74164500      -0.05831100
H       -7.84192800       0.35485100      -0.23656700
H       -6.55081500       0.31716700       0.97519500
H       -5.38205600      -1.89941400      -1.99698300
H       -5.95736400      -2.03085900      -0.32594700
H       -7.10090700      -1.68307100      -1.61463600
C        2.88949600       0.86416800      -2.15134200
H        3.76894300       2.36810000      -0.98575600
C        3.75504200       0.66580400       0.25781400
H        3.88854000       0.64472900      -2.54347800
H        2.33141200      -0.06855100      -2.07668200
H        2.37703600       1.51982000      -2.86467800
H        4.67604100       0.27016200      -0.18499900
H        4.01402800       1.23567500       1.15342100
H        3.12083400      -0.15700200       0.56516600
C       -3.71528600      -2.47479200       0.97377000
C       -3.89950100      -0.60056000       2.70255500
H       -5.21496300      -0.98472400       1.10834900
H       -4.30275300      -3.11878800       1.63857600
H       -3.90988100      -2.76977300      -0.06044700
H       -2.66000900      -2.62004300       1.18745200
H       -2.89717800      -0.85773100       3.04468700
H       -4.06207700       0.47355600       2.84598600
H       -4.62971000      -1.14126700       3.31513200
