73
Properties=species:S:1:pos:R:3 pbc="F F F"
Si       0.49012400      -1.49781900       0.91897300
O       -1.04156000      -1.24605500      -0.26666600
C       -1.86201200      -2.11358600      -0.65770800
C       -2.99007400      -1.78089000      -1.49236800
H       -1.69049600      -3.16489400      -0.41079900
C       -3.16436900      -0.48571200      -2.02672900
C       -3.90930500      -2.80473500      -1.80383600
C       -4.24823700      -0.22380700      -2.85366200
H       -2.44220700       0.28913100      -1.79570800
C       -5.00212400      -2.52986900      -2.62039900
H       -3.75903300      -3.80039900      -1.39531500
C       -5.16961200      -1.24203600      -3.14484700
H       -4.38585900       0.76799600      -3.27360000
H       -5.71804400      -3.31129500      -2.85546700
H       -6.01846900      -1.02965300      -3.78885300
C       -3.16472300      -2.78315500       2.07427500
C       -1.88217100      -2.54115700       2.23340200
H       -3.52133500      -3.74134700       1.69814200
H       -3.91234600      -2.03569300       2.33765600
C       -0.61537200      -2.25753400       2.31480200
H       -0.08216800      -2.47049300       3.24219800
Cl       2.32362100      -1.38774300       2.17556900
Cl       0.97441200      -3.47248200      -0.01863200
O        1.30644000      -0.68860000      -0.58294500
O        0.12172300       0.30542900       1.55267800
C        1.65904500       1.59047900      -0.29531000
C        0.20569200       1.80964600      -0.20906900
C       -1.82464000       1.50162400       1.04976200
C        3.51180800       0.08213600      -0.61935200
C        4.44019000       1.15348600      -0.54471800
C        2.54134200       2.65856400      -0.25487300
C        3.91029100       2.43475000      -0.35841200
C       -0.44733300       2.71763100      -1.02913900
C       -1.79861000       2.98493000      -0.83605300
C       -2.52458400       2.40941300       0.21477300
H        2.14600400       3.65784600      -0.11666100
H        4.57196400       3.28793700      -0.29432400
H        0.11061300       3.19940600      -1.82297100
H       -2.28381900       3.67414900      -1.51356900
C       -3.99695700       2.78155100       0.46637300
C       -2.34288400       0.89519900       2.21614300
N        2.16297400       0.33738500      -0.45818100
N       -0.50526700       1.19188800       0.77308600
C        3.83482700      -1.26441400      -0.89811100
C        5.95639300       0.92665800      -0.66640900
C        6.29704800       0.37914200      -2.07463800
C        6.74194100       2.24111000      -0.48511400
C        6.43508500      -0.04874800       0.43734200
H        5.98744700       1.09558100      -2.84428500
H        7.38291300       0.24777600      -2.14089300
H        5.82214100      -0.58262000      -2.27435700
H        7.80912100       2.01197500      -0.56255000
H        6.49533100       2.97289300      -1.26291100
H        6.56074900       2.68940500       0.49849200
H        7.51876900      -0.17659200       0.33806300
H        6.22404200       0.36776400       1.42877700
H        5.96465400      -1.03010800       0.36065800
C        4.09484600      -2.41116800      -1.17853300
H        4.32982800      -3.42876600      -1.40446700
C       -2.75966300       0.42677700       3.24967000
H       -3.14175500      -0.00449900       4.14966900
C       -4.89768300       1.52283600       0.51143300
C       -4.09549800       3.56640600       1.79871800
C       -4.54625300       3.69022000      -0.65170100
H       -4.85275100       0.98483600      -0.43992500
H       -4.62543300       0.83940700       1.31613900
H       -5.93024800       1.84979200       0.67637800
H       -3.76231900       2.97076800       2.65085500
H       -3.49536600       4.48203100       1.74723300
H       -5.14259300       3.84622200       1.96043900
H       -4.48364000       3.20487900      -1.63250900
H       -5.59977400       3.89405800      -0.43822000
H       -4.01943200       4.65019900      -0.69399300
