73
Properties=species:S:1:pos:R:3 pbc="F F F"
Si       0.47520200      -1.41124900       1.00754100
O       -1.12905800      -1.19784200      -0.04043300
C       -2.19903800      -1.85853100      -0.04736000
C       -3.19756000      -1.65124500      -1.06688200
H       -2.40966500      -2.55200300       0.77186800
C       -2.97562300      -0.76655400      -2.14544000
C       -4.43145200      -2.32129600      -0.94062800
C       -3.97957600      -0.56310100      -3.08208800
H       -2.02249800      -0.25401600      -2.22558300
C       -5.43556800      -2.10543100      -1.88031200
H       -4.59003300      -2.99791700      -0.10501100
C       -5.20861100      -1.22947900      -2.94882100
H       -3.81864500       0.11420500      -3.91544000
H       -6.38974400      -2.61447500      -1.78625300
H       -5.99201700      -1.06221200      -3.68277700
C       -1.02606900      -4.51190000      -1.01987500
C       -0.04877300      -3.85465700      -0.43242300
H       -1.63973200      -5.22279300      -0.46748100
H       -1.22896900      -4.39231700      -2.08346600
C        0.83617800      -3.11870400       0.17110000
H        1.87527900      -3.44070800       0.23378500
Cl      -0.64024400      -2.25188100       2.75456300
Cl       2.38986600      -1.28036800       2.14114300
O        1.24005000      -0.58688300      -0.56998900
O        0.10855000       0.35685200       1.61511300
C        1.69011800       1.65870600      -0.20782400
C        0.24386900       1.90977600      -0.11053300
C       -1.84926400       1.50902200       1.01314400
C        3.46750700       0.10307700      -0.67928100
C        4.43984900       1.13119700      -0.57795600
C        2.61391800       2.68883300      -0.13308300
C        3.96840900       2.41890200      -0.29658400
C       -0.37363600       2.86222900      -0.90675700
C       -1.73478700       3.10869200      -0.77157500
C       -2.51492200       2.45181800       0.18772800
H        2.26346700       3.69292300       0.07395500
H        4.66558000       3.24054500      -0.20414300
H        0.22099500       3.38773700      -1.64443000
H       -2.18769800       3.83793800      -1.42920400
C       -4.01475400       2.76204400       0.34266400
C       -2.44445300       0.79922500       2.07856600
N        2.13578000       0.39932100      -0.46130000
N       -0.50593100       1.24566300       0.80986900
C        3.72247900      -1.24323400      -1.03211500
C        5.94123200       0.85361800      -0.76209300
C        6.21440800       0.36535100      -2.20601800
C        6.78415600       2.12583700      -0.54113600
C        6.41461200      -0.19596800       0.27381200
H        5.90900700       1.13056400      -2.92890300
H        7.29134800       0.19567400      -2.31635800
H        5.69495100      -0.56638900      -2.43575800
H        7.83819700       1.86165600      -0.66965100
H        6.53899700       2.90729300      -1.26953000
H        6.65517400       2.52688200       0.47085700
H        7.48943100      -0.35768900       0.13502500
H        6.24757700       0.17325900       1.29187200
H        5.90533100      -1.15420800       0.15969700
C        3.92538700      -2.38501500      -1.37498200
H        4.12045700      -3.39479600      -1.66605900
C       -2.93866100       0.20019600       3.00499700
H       -3.37936300      -0.33293900       3.81947900
C       -4.86047400       1.47716600       0.16370200
C       -4.27087500       3.39961700       1.73062600
C       -4.49510400       3.76777300      -0.72358900
H       -4.63394900       0.71918700       0.91395200
H       -5.91787000       1.74772200       0.25865700
H       -4.70048500       1.04888200      -0.83078400
H       -4.00105000       2.73059300       2.54960900
H       -3.70272300       4.33151200       1.83068900
H       -5.33831100       3.63286000       1.81252300
H       -4.34510400       3.38235400      -1.73882600
H       -5.56702300       3.93112100      -0.57689000
H       -3.99011900       4.73559800      -0.62942700
