73
Properties=species:S:1:pos:R:3 pbc="F F F"
Si       0.53905000       1.62144500      -0.58028300
O       -1.07390400       1.16211800       0.57525900
C       -2.20890800       1.68342700       0.56445600
C       -3.26837900       1.23856400       1.43568100
H       -2.42211800       2.50175800      -0.13477700
C       -3.07230700       0.19792200       2.37107800
C       -4.52731600       1.86251700       1.31960600
C       -4.12729100      -0.20283300       3.17869400
H       -2.09848600      -0.27563500       2.44232800
C       -5.58159500       1.45035900       2.12939100
H       -4.66401900       2.65911100       0.59311800
C       -5.37980500       0.42217400       3.05781200
H       -3.98800500      -1.00068500       3.90183800
H       -6.55436800       1.92417200       2.04330100
H       -6.20212200       0.10143800       3.69124600
C       -1.49580700       4.98795300      -1.66382700
C       -0.98949000       3.78407000      -1.78138500
H       -2.51038000       5.14352000      -1.29786800
H       -0.91527600       5.87243600      -1.92350800
C       -0.49122200       2.58240500      -1.88381800
H       -0.62480400       2.04478300      -2.82292200
Cl       2.40698400       1.70865700      -1.78018700
Cl       0.93978100       3.28959800       0.79794500
O        1.28817400       0.47029100       0.72630800
O        0.07067300      -0.01767700      -1.54077000
C        1.64591000      -1.68804400      -0.06040800
C        0.19285200      -1.88242800      -0.17050500
C       -1.89971800      -1.22196100      -1.16249000
C        3.49398000      -0.29741000       0.62040100
C        4.42413100      -1.32408100       0.31053200
C        2.52967800      -2.72010500      -0.33425200
C        3.89697300      -2.52740300      -0.17107900
C       -0.43942800      -2.96583200       0.42226200
C       -1.80080000      -3.16937400       0.23353200
C       -2.57195600      -2.32142900      -0.57195100
H        2.13633100      -3.66309000      -0.69474500
H        4.55963100      -3.34442600      -0.42197800
H        0.14617200      -3.63750700       1.03826100
H       -2.26168900      -4.01651600       0.72264100
C       -4.06389800      -2.60365400      -0.82797100
C       -2.49103300      -0.26157500      -2.01565000
N        2.14664300      -0.50438700       0.38739800
N       -0.54752500      -1.03189800      -0.93040400
C        3.81287100       0.94517600       1.21193000
C        5.93952400      -1.13667200       0.49723900
C        6.26554000      -0.93770900       1.99775600
C        6.72612500      -2.37336000       0.01654200
C        6.43030500       0.07050900      -0.33942200
H        5.94304900      -1.81182100       2.57524400
H        7.35101900      -0.83297200       2.10499900
H        5.79095600      -0.04579400       2.40939500
H        7.79276400      -2.17027900       0.15266700
H        6.47601100      -3.26770300       0.59863500
H        6.55006700      -2.57680700      -1.04600600
H        7.51434200       0.16231700      -0.21011900
H        6.22087700      -0.09426300      -1.40228900
H        5.96696100       1.00854200      -0.03040400
C        4.06880400       1.99217900       1.75926500
H        4.30058700       2.92662700       2.22287200
C       -2.98729000       0.56877600      -2.74145500
H       -3.43535000       1.29841700      -3.38132000
C       -4.94259400      -1.40707000      -0.39088300
C       -4.27051700      -2.90847900      -2.33249500
C       -4.54898100      -3.83300700      -0.03330900
H       -4.71609000      -0.49584900      -0.94441700
H       -5.99041100      -1.66738700      -0.57727700
H       -4.81954500      -1.21190700       0.67813000
H       -3.99792900      -2.06201400      -2.96606800
H       -3.67797900      -3.78085900      -2.63059100
H       -5.32963600      -3.13545500      -2.49756500
H       -4.44169200      -3.68238000       1.04729000
H       -5.61067000      -3.98177100      -0.25216200
H       -4.01342500      -4.74407000      -0.32287100
