73
Properties=species:S:1:pos:R:3 pbc="F F F"
Si       0.00886800      -0.92910500       0.96666400
O        1.66361400      -1.83213100       0.64358400
C        2.31447800      -1.89989100      -0.43221400
C        3.44346600      -2.78400400      -0.58632100
H        2.04784700      -1.25237500      -1.26778700
C        3.88203400      -3.62223500       0.46200400
C        4.11596900      -2.78732700      -1.82687500
C        4.98005300      -4.44945100       0.26281000
H        3.35549600      -3.60822600       1.41086000
C        5.21421800      -3.61971700      -2.01792000
H        3.76434100      -2.14142200      -2.62743500
C        5.64483300      -4.44884400      -0.97388600
H        5.32532000      -5.09697800       1.06308900
H        5.73413800      -3.62837300      -2.97098900
H        6.50265700      -5.09893600      -1.12264600
C        0.23543600      -3.24112500      -2.34176500
C       -0.38442600      -2.64425900      -1.34771200
H        0.28931100      -2.78987800      -3.33190300
H        0.70011900      -4.21727400      -2.20782200
C       -0.91315700      -2.05154500      -0.31696900
H       -1.95635500      -2.26321600      -0.08400000
Cl       1.15631000       0.38172400       2.37674500
Cl      -0.46178100      -2.35543100       2.61895200
O        0.41568300       0.27761300      -0.50983200
O       -1.49011700       0.16674200       1.34925300
C       -0.76435500       2.25193700      -0.29261700
C       -2.01910900       1.50414100      -0.47824900
C       -3.56885600      -0.16329300       0.31272700
C        1.64223100       2.26733100      -0.28242400
C        1.66803200       3.67891700      -0.12866000
C       -0.77025300       3.63151900      -0.15976700
C        0.42907600       4.32665000      -0.06297400
C       -2.93334600       1.88227900      -1.44964900
C       -4.14972500       1.21848900      -1.56090300
C       -4.51165700       0.18570400      -0.68898700
H       -1.72167500       4.14783100      -0.11842300
H        0.38681300       5.40005500       0.06086900
H       -2.67331000       2.68977500      -2.12343700
H       -4.82852300       1.52651200      -2.34429400
C       -5.86402000      -0.53396700      -0.82191700
C       -3.76545700      -1.13117300       1.32312700
N        0.43148300       1.60494400      -0.33711300
N       -2.34616400       0.48300100       0.36035900
C        2.78967800       1.44986600      -0.42263400
C        2.98262800       4.47328900      -0.03278000
C        3.78967200       4.32634200      -1.34618200
C        2.71986600       5.98042000       0.16762100
C        3.80602400       3.98795900       1.18601700
H        3.21167900       4.72053400      -2.18992900
H        4.71022900       4.91340700      -1.25337600
H        4.06258200       3.29176800      -1.55720100
H        3.68810000       6.48533400       0.23794600
H        2.17328300       6.41236100      -0.67846900
H        2.16500400       6.17765500       1.09176900
H        4.71447500       4.59677000       1.25188200
H        3.23088800       4.12186700       2.10909500
H        4.09926100       2.94060100       1.10427500
C        3.80358700       0.80663100      -0.56792400
H        4.70856600       0.24928600      -0.67906500
C       -3.90076500      -1.95078200       2.20163600
H       -4.02562900      -2.68218300       2.97088600
C       -5.63011300      -2.04366700      -1.07909900
C       -6.71116000      -0.31560300       0.45547800
C       -6.68118100       0.01230000      -2.01070800
H       -5.11168100      -2.53189800      -0.25219900
H       -6.60480300      -2.52722800      -1.20702800
H       -5.04811500      -2.18713100      -1.99674800
H       -6.23016000      -0.71787200       1.34826900
H       -6.90177200       0.75321800       0.60510600
H       -7.67280700      -0.82394500       0.32332200
H       -6.15661500      -0.12499400      -2.96317700
H       -7.62240300      -0.54354200      -2.05812900
H       -6.92029000       1.07425200      -1.88391900
