73
Properties=species:S:1:pos:R:3 pbc="F F F"
Si       0.09182900      -0.93356900       0.54530900
O        1.70775600      -1.54947300      -0.25014600
C        2.69977400      -2.01887800       0.36516000
C        3.81961300      -2.60406400      -0.32189700
H        2.73689500      -1.94954800       1.45648100
C        3.84772300      -2.73348600      -1.72908900
C        4.91218800      -3.04504300       0.45547200
C        4.95866600      -3.29767400      -2.34073100
H        2.99842800      -2.39225500      -2.31199400
C        6.02224200      -3.60744100      -0.16701900
H        4.87477100      -2.94103000       1.53671300
C        6.04368100      -3.73347500      -1.56173300
H        4.99026600      -3.40475900      -3.42073100
H        6.86611500      -3.94853500       0.42455600
H        6.90944000      -4.17472100      -2.04790900
C        1.27926500      -4.61666900       1.63852800
C        0.56970500      -3.51534600       1.74447300
H        2.23884700      -4.72408800       2.14335200
H        0.91960100      -5.46698700       1.05977500
C       -0.09114400      -2.39439600       1.78430500
H       -0.82673400      -2.22696900       2.57122500
Cl       1.26449800       0.27994800       2.12049100
Cl      -0.98453100      -1.99957300      -1.13393100
O        0.25092300       0.45684600      -0.71786400
O       -1.44203100      -0.08717700       1.22096200
C       -1.01977000       2.29510000      -0.08847000
C       -2.24586600       1.50023900      -0.27129400
C       -3.56973300      -0.42732300       0.32124200
C        1.37518500       2.46728700      -0.31625600
C        1.34824800       3.83711000       0.05062700
C       -1.07740800       3.63894900       0.24816600
C        0.09199900       4.38602800       0.33392600
C       -3.28248300       1.95692300      -1.07105800
C       -4.44879700       1.21006800      -1.19462300
C       -4.63518100       0.00357500      -0.51009800
H       -2.04231300       4.08489000       0.45779800
H        0.01132400       5.42501900       0.62312600
H       -3.15638900       2.88847400      -1.60941700
H       -5.22715000       1.58680700      -1.84424800
C       -5.93066100      -0.81085200      -0.66370700
C       -3.57904900      -1.57720100       1.14468800
N        0.19928200       1.74433900      -0.33780500
N       -2.41414500       0.32512000       0.39293000
C        2.52430000       1.74793900      -0.72184900
C        2.62715800       4.68648800       0.13807100
C        3.27480100       4.81013900      -1.26347400
C        2.32434800       6.11653600       0.63037000
C        3.61486800       4.05383900       1.14928100
H        2.58116000       5.29507100      -1.96007400
H        4.17072700       5.43483400      -1.17615300
H        3.56892600       3.84227900      -1.67256300
H        3.27036100       6.66326500       0.68788400
H        1.66481200       6.65376000      -0.06069500
H        1.87138500       6.11465600       1.62845600
H        4.49780000       4.69886200       1.21880800
H        3.15292800       3.98900500       2.14074300
H        3.94066900       3.05762000       0.84675900
C        3.50052500       1.15554900      -1.11930200
H        4.37265300       0.63646900      -1.45414100
C       -3.58746800      -2.54271900       1.87256200
H       -3.60241100      -3.40774400       2.50025500
C       -5.60115200      -2.21966800      -1.21590800
C       -6.66213900      -0.90985400       0.69763600
C       -6.90319300      -0.14407900      -1.65756200
H       -4.95919700      -2.79094900      -0.54336100
H       -6.54058900      -2.76868200      -1.34560200
H       -5.10759500      -2.13949000      -2.19093800
H       -6.06259900      -1.41461500       1.45667600
H       -6.92689600       0.08984100       1.06070900
H       -7.58580600      -1.48090600       0.55186200
H       -6.46399900      -0.05576600      -2.65770600
H       -7.79553900      -0.77284500      -1.73221100
H       -7.21556800       0.84924200      -1.31539100
