79
Properties=species:S:1:pos:R:3 pbc="F F F"
Si       0.37076100      -1.53869500       1.16826400
O       -1.35571200      -1.45066100       0.29739400
C       -1.66560900      -1.43345300      -0.92257200
C       -3.02681100      -1.62410000      -1.35619600
H       -0.90787100      -1.19906600      -1.67536500
C       -4.03830700      -2.02328700      -0.45588800
C       -3.33744500      -1.36699000      -2.70791100
C       -5.34203100      -2.16293700      -0.91077000
H       -3.78078900      -2.21563000       0.58036100
C       -4.65041300      -1.49413600      -3.15135400
H       -2.54734100      -1.06435800      -3.39079400
C       -5.64917100      -1.89424000      -2.25410400
H       -6.12655700      -2.47303400      -0.22731200
H       -4.89914700      -1.28983800      -4.18817300
H       -6.67301700      -1.99931100      -2.60215500
C       -0.55959500      -4.17606400      -1.68880700
C        0.09195600      -3.79199000      -0.61101400
H       -0.14988400      -4.01440000      -2.68553500
H       -1.51253600      -4.69896600      -1.61636000
C        0.66589300      -3.31156400       0.45072500
H        1.38184700      -3.90972800       1.01452100
Cl      -0.68646200      -2.29502800       2.98501300
Cl       2.32671400      -1.37802900       2.23362500
O        1.08365300      -0.78922100      -0.47353700
O        0.02597900       0.25492600       1.71495700
C        1.62320200       1.43343900      -0.11488500
C        0.17149300       1.70326100      -0.09732600
C       -1.92162600       1.39054000       1.06909600
C        3.32910800      -0.19424000      -0.63653900
C        4.34116500       0.79067900      -0.50232900
C        2.58580000       2.42285600       0.06643400
C        3.92701700       2.06649700      -0.12108500
C       -0.43900500       2.56192200      -1.00998900
C       -1.80757100       2.81300900      -0.85514000
C       -2.57858800       2.27469100       0.17314000
H        4.66685900       2.84070600       0.03672100
H       -2.27224100       3.47008400      -1.57908400
C       -4.07332300       2.61387200       0.30799300
C       -2.51662400       0.75353900       2.17937000
N        2.02123100       0.16431500      -0.40544700
N       -0.58566000       1.11300700       0.87196600
C        3.52262500      -1.54815300      -0.99702700
C        5.82706800       0.46644600      -0.72981700
C        6.04539900      -0.01005700      -2.18642200
C        6.71975300       1.70520500      -0.51546200
C        6.28894800      -0.61483600       0.27778600
H        5.74792700       0.77486400      -2.89147800
H        7.11246000      -0.21532400      -2.32785000
H        5.48792800      -0.92026600      -2.41370300
H        7.75752800       1.41298800      -0.70272400
H        6.46311600       2.51493900      -1.20828200
H        6.65399700       2.08075600       0.51205900
H        7.35382600      -0.81245800       0.11065500
H        6.15874000      -0.25600000       1.30495300
H        5.74228100      -1.55210200       0.16105500
C        3.66475900      -2.70293300      -1.32632900
H        3.80400900      -3.72617200      -1.60111500
C       -3.00740600       0.21957000       3.14648400
H       -3.44509800      -0.26126900       3.99436900
C       -4.92022800       1.32535100       0.17711900
C       -4.33547300       3.31443700       1.66336000
C       -4.53964600       3.57738100      -0.80230700
H       -4.68507200       0.59186200       0.94917400
H       -5.97851300       1.59471000       0.26826600
H       -4.76448600       0.86360400      -0.80353900
H       -4.08135400       2.68187000       2.51513600
H       -3.75883700       4.24442500       1.72618700
H       -5.40097200       3.56278300       1.72361000
H       -4.41420600       3.13853100      -1.79889600
H       -5.60511500       3.77657100      -0.65237400
H       -4.00580800       4.53369300      -0.76156700
C        0.31042500       3.20479800      -2.14560000
H        0.50992400       4.25816500      -1.91603900
H        1.26230400       2.71080100      -2.35066500
H       -0.30542100       3.17796800      -3.05012400
C        2.22805700       3.83035600       0.45907300
H        2.95036500       4.19847200       1.19435000
H        2.27826800       4.49252000      -0.41338600
H        1.22481100       3.89648000       0.88616600
