79
Properties=species:S:1:pos:R:3 pbc="F F F"
Si       0.39610700      -1.72253300       0.83939800
O       -1.14530600      -1.33262300      -0.30767800
C       -2.01886500      -2.14282900      -0.70500600
C       -3.13947500      -1.73069200      -1.51434800
H       -1.90654600      -3.20688000      -0.47954700
C       -3.24256600      -0.42128900      -2.03205900
C       -4.12944200      -2.68996500      -1.81332300
C       -4.32703500      -0.08081100      -2.82928500
H       -2.46648000       0.30177200      -1.81020800
C       -5.22261300      -2.33588300      -2.59844400
H       -4.03297300      -3.69828800      -1.41970800
C       -5.31976100      -1.03398000      -3.10576100
H       -4.40884900       0.92166600      -3.23832500
H       -5.99293200      -3.06699200      -2.82303900
H       -6.16889600      -0.76036100      -3.72583300
C       -3.31567300      -2.82933600       2.04535200
C       -2.01189600      -2.69946000       2.15499800
H       -3.76371800      -3.71917100       1.60470700
H       -3.98937700      -2.05753600       2.41588600
C       -0.72273700      -2.52919300       2.19736900
H       -0.17402100      -2.87728800       3.07368500
Cl       2.25291100      -1.78561400       2.06444500
Cl       0.77441200      -3.65659600      -0.23467700
O        1.21946800      -0.85781300      -0.62760400
O        0.12236400       0.04433700       1.61411300
C        1.65737400       1.36819400      -0.13479800
C        0.19637600       1.59551100      -0.09979000
C       -1.80543600       1.30318000       1.21597200
C        3.45121600      -0.17925100      -0.61235100
C        4.41737300       0.83756100      -0.39722100
C        2.57263900       2.39202700       0.10112700
C        3.93455200       2.09010100      -0.02194400
C       -0.46469200       2.47627300      -0.95343100
C       -1.81909700       2.73331000      -0.70441000
C       -2.51520100       2.20582000       0.38391000
H        4.63419900       2.89065900       0.18254400
H       -2.32946800       3.39657100      -1.39105200
C       -3.97692700       2.59563500       0.66655000
C       -2.29405900       0.70986100       2.40214600
N        2.12041800       0.12151600      -0.43077300
N       -0.50585800       0.98354900       0.89456000
C        3.72152500      -1.49998800      -1.03539800
C        5.92539500       0.57681200      -0.55432600
C        6.24064400       0.19048300      -2.02040100
C        6.75572300       1.83321800      -0.22358100
C        6.37503600      -0.53977600       0.41947800
H        5.95400300       1.00397500      -2.69697900
H        7.32066800       0.02925700      -2.11236200
H        5.72947500      -0.72311800      -2.32787700
H        7.81371600       1.58553300      -0.35239100
H        6.51706900       2.66531800      -0.89587200
H        6.60568100       2.15631500       0.81296000
H        7.45291400      -0.69396400       0.29592200
H        6.18414600      -0.23887000       1.45579300
H        5.86870600      -1.48740500       0.22979500
C        3.94407100      -2.61720300      -1.44012700
H        4.14421000      -3.61161600      -1.77586600
C       -2.68016900       0.25842600       3.45513000
H       -3.03552000      -0.16154300       4.37127700
C       -4.88411200       1.34319600       0.74985400
C       -4.03651100       3.39439800       1.99230300
C       -4.54774000       3.49676200      -0.44631000
H       -4.85184300       0.78206100      -0.18889100
H       -4.60509800       0.67873100       1.56815500
H       -5.91365300       1.67784300       0.91864800
H       -3.68101100       2.80648800       2.84089400
H       -3.43526900       4.30749800       1.91441500
H       -5.07780700       3.67927600       2.18070800
H       -4.52629200       2.99738700      -1.42167000
H       -5.59008900       3.72190300      -0.20148300
H       -4.00560900       4.44622100      -0.52064600
C        0.22201900       3.13586500      -2.11768200
H        0.39494400       4.19682000      -1.90215400
H        1.18048400       2.66837900      -2.35268900
H       -0.42425300       3.08228000      -2.99976100
C        2.14878900       3.78272300       0.48989700
H        2.85692000       4.18972500       1.21781900
H        2.16064300       4.44078500      -0.38706400
H        1.14546100       3.80476500       0.92087100
