79
Properties=species:S:1:pos:R:3 pbc="F F F"
Si      -0.43631400      -1.79808600      -0.55996700
O        1.18736600      -1.28657500       0.54754500
C        2.33649000      -1.77507500       0.51453300
C        3.39300600      -1.30920900       1.37790900
H        2.56341800      -2.57728500      -0.19894500
C        3.17742600      -0.28247100       2.32426300
C        4.66785400      -1.89558400       1.24257700
C        4.23028100       0.14480300       3.12089700
H        2.19009200       0.15890300       2.41270100
C        5.71933800      -1.45832800       2.04280800
H        4.81883500      -2.68268300       0.50875900
C        5.49922100      -0.44182800       2.97988200
H        4.07640900       0.93322700       3.85141200
H        6.70444500      -1.90279000       1.94180000
H        6.31979700      -0.10057900       3.60479500
C        1.65579700      -5.12383100      -1.67341200
C        1.11823500      -3.93269100      -1.78361900
H        2.68119600      -5.25406000      -1.32823900
H        1.09141800      -6.02281000      -1.91856800
C        0.58941200      -2.74368400      -1.88059300
H        0.69327800      -2.20681400      -2.82393300
Cl      -2.33400800      -1.96495200      -1.70603700
Cl      -0.74843700      -3.46848900       0.84461700
O       -1.18530200      -0.66000400       0.76315600
O       -0.04908100      -0.15775700      -1.56134600
C       -1.63924300       1.44384300      -0.10889800
C       -0.18008800       1.67023200      -0.14903300
C        1.90215700       1.08187700      -1.21698700
C       -3.41961000       0.00838200       0.66997500
C       -4.39316100       0.96338100       0.27633700
C       -2.56151000       2.40078900      -0.52602600
C       -3.92090500       2.12117200      -0.33838900
C        0.44791300       2.69960400       0.55193000
C        1.81332500       2.90659800       0.32741800
C        2.56767100       2.15629200      -0.57495800
H       -4.62738300       2.86344600      -0.68673900
H        2.28741000       3.70614500       0.88252600
C        4.04112800       2.49617100      -0.86342200
C        2.49143900       0.16656600      -2.11970400
N       -2.09274700       0.26997400       0.41578900
N        0.56444000       0.86819700      -0.95937600
C       -3.68038400      -1.20837500       1.33952900
C       -5.89818800       0.73183200       0.49514300
C       -6.19790000       0.63202000       2.01078000
C       -6.74059500       1.89718500      -0.06255500
C       -6.34886800      -0.55248300      -0.24273600
H       -5.90784100       1.56054400       2.51624100
H       -7.27622900       0.48790200       2.14188900
H       -5.67871700      -0.20459600       2.48086300
H       -7.79597700       1.66863400       0.11562800
H       -6.50963200       2.84363500       0.43973200
H       -6.59718900       2.02150000      -1.14213800
H       -7.42642500      -0.67952800      -0.08995200
H       -6.15919400      -0.45827600      -1.31793000
H       -5.84199500      -1.44517900       0.12637100
C       -3.89498600      -2.22913300       1.95063400
H       -4.08883700      -3.14195900       2.47112100
C        2.99019400      -0.62585100      -2.88543200
H        3.43940100      -1.32191200      -3.56081200
C        4.96640700       1.31012300      -0.50257300
C        4.19036400       2.86809900      -2.35964800
C        4.51426300       3.70834000      -0.03666000
H        4.74684200       0.41578400      -1.08620800
H        6.00096600       1.60695600      -0.70751000
H        4.88076800       1.06934300       0.56078200
H        3.92025700       2.04127200      -3.01958600
H        3.56461400       3.73478200      -2.60149700
H        5.23676000       3.13203700      -2.54935200
H        4.46452400       3.50807200       1.03989400
H        5.55799400       3.91062300      -0.29574200
H        3.92791500       4.60692800      -0.25988900
C       -0.29376800       3.57626400       1.52372000
H       -0.57291700       4.52149900       1.04347400
H       -1.20399300       3.10030100       1.89538100
H        0.35582400       3.81510100       2.37111400
C       -2.15224400       3.69526400      -1.17463200
H       -2.79329900       3.88510500      -2.04145000
H       -2.29045700       4.52799400      -0.47492100
H       -1.11063600       3.68616200      -1.50146000
