71
Properties=species:S:1:pos:R:3 pbc="F F F"
Si       0.16810900      -0.88532900       0.62280300
O        1.83576700      -1.42155800      -0.04637700
C        2.15465200      -2.58969400      -0.41004700
C        3.51187800      -2.96288100      -0.68790300
H        1.36995600      -3.33531700      -0.56361400
C        4.58716300      -2.05921200      -0.52721600
C        3.74839200      -4.28108800      -1.13811300
C        5.87805100      -2.47952900      -0.81602600
H        4.38830100      -1.04877500      -0.18779900
C        5.04550000      -4.69143700      -1.42483000
H        2.91104000      -4.96451000      -1.25319000
C        6.10718200      -3.79146100      -1.26295700
H        6.71227200      -1.79474200      -0.69751200
H        5.23521600      -5.70270200      -1.77090300
H        7.12116300      -4.11230900      -1.48574300
C        1.79373700      -4.13890500       2.29451800
C        0.84674600      -3.24595000       2.11194200
H        1.82211100      -5.06146800       1.71582400
H        2.56678100      -3.99541900       3.04872500
C       -0.04450400      -2.32801300       1.87247000
H       -0.99254600      -2.34278200       2.40943900
Cl       1.28115000       0.40563700       2.11293200
Cl      -0.94707200      -1.99268600      -1.03476900
O        0.28013200       0.49140200      -0.70509200
O       -1.43342600      -0.03458600       1.24373300
C       -1.03717700       2.32299500      -0.14096200
C       -2.24621200       1.50064600      -0.30531700
C       -3.52864200      -0.42279200       0.31313400
C        1.33955500       2.53311600      -0.33238800
C        1.30844100       3.90729900      -0.01599100
C       -1.11535300       3.67869300       0.15777800
C        0.03717800       4.44816600       0.23461100
C       -3.29064700       1.90857000      -1.12786500
C       -4.43661700       1.13473200      -1.24670900
C       -4.59946600      -0.06166600      -0.53050600
H       -2.08898000       4.11438400       0.34824800
H       -0.06070000       5.49421100       0.49106900
H       -3.18061300       2.82878200      -1.68897300
H       -5.21752600       1.47315200      -1.91389000
C       -5.86399900      -0.92257700      -0.66677200
C       -3.51866700      -1.55455600       1.18403100
N        0.18813400       1.78262700      -0.36555400
N       -2.39128300       0.34661800       0.39541300
C        2.51444900       1.80770600      -0.69708400
C        2.58076400       4.76392000       0.05931000
C        3.54989600       4.17206100       1.11322400
C        3.25389100       4.83001200      -1.33482500
C        2.25813400       6.20972400       0.48747300
H        3.89730100       3.16992800       0.85463700
H        4.42552500       4.82665500       1.17782900
H        3.06806700       4.13627500       2.09612700
H        4.13152700       5.48074100      -1.25934700
H        3.58768800       3.85312000      -1.68948000
H        2.56504300       5.25938100      -2.07070800
H        1.78796600       6.24418700       1.47669500
H        3.19901600       6.76503500       0.53932300
H        1.60748000       6.71248700      -0.23696900
N        3.48021600       1.26467700      -1.04063900
N       -3.54712300      -2.45486800       1.91559700
C       -5.48012900      -2.34070900      -1.15836900
C       -6.60402800      -0.99102400       0.69252900
C       -6.84108100      -0.32275700      -1.69722400
H       -4.84632600      -2.87758200      -0.44988900
H       -6.40145300      -2.91801000      -1.29091400
H       -4.96220900      -2.28351400      -2.12190700
H       -6.00753400      -1.46310700       1.47548300
H       -6.89090100       0.01390100       1.02143500
H       -7.51409700      -1.58474300       0.55611300
H       -6.38814100      -0.25560400      -2.69261500
H       -7.71052800      -0.98316200      -1.76284400
H       -7.19167000       0.67018100      -1.39397400
