71
Properties=species:S:1:pos:R:3 pbc="F F F"
Si       0.02946900      -1.01093700       1.02207900
O        1.67959100      -1.93587500       0.65113900
C        2.08999400      -2.27150700      -0.49028600
C        3.31852800      -2.98361400      -0.69141000
H        1.48395600      -2.02375700      -1.36948500
C        4.16000900      -3.34181100       0.38752400
C        3.67255000      -3.32433300      -2.01566900
C        5.33570200      -4.03286800       0.13388700
H        3.87569800      -3.06892700       1.39849900
C        4.85326200      -4.01779400      -2.25905800
H        3.01754500      -3.04026300      -2.83508800
C        5.68136900      -4.37043600      -1.18585600
H        5.99052400      -4.31306100       0.95325600
H        5.13218000      -4.28380700      -3.27380800
H        6.60416700      -4.91185800      -1.37539500
C       -1.93773200      -1.41461600      -2.57602300
C       -1.43097400      -1.75896300      -1.41781700
H       -2.96553100      -1.06620400      -2.66141400
H       -1.35120800      -1.47496000      -3.49148700
C       -0.93325700      -2.09397600      -0.25691600
H       -1.05183200      -3.13187000       0.06045500
Cl       1.27720900       0.29765800       2.34478800
Cl      -0.39739900      -2.37934600       2.69014200
O        0.41972500       0.20345100      -0.48993400
O       -1.42736800       0.16238300       1.44411400
C       -0.62612600       2.25054100      -0.17543800
C       -1.93435700       1.59052100      -0.32088700
C       -3.48169300      -0.09773400       0.37714500
C        1.75782300       2.09715400      -0.30720000
C        1.92273600       3.48474400      -0.11697800
C       -0.51042600       3.62483800      -0.00571200
C        0.74071600       4.22509500       0.04059200
C       -2.86514700       2.03660400      -1.24960100
C       -4.08973000       1.39588600      -1.38046900
C       -4.44396900       0.30175600      -0.57561800
H       -1.41311200       4.21347400       0.10850200
H        0.79112500       5.29389100       0.19803600
H       -2.60463900       2.87313300      -1.88725400
H       -4.77987400       1.75872300      -2.13003300
C       -5.80122500      -0.40332600      -0.72213300
C       -3.67285500      -1.13664000       1.33736000
N        0.51019700       1.51702500      -0.31158700
N       -2.26903600       0.54434800       0.47929300
C        2.81677100       1.16951900      -0.54812700
C        3.30712200       4.14702100      -0.06801800
C        4.13957400       3.52645000       1.08191300
C        4.02691900       3.96725900      -1.42767900
C        3.19477200       5.66005900       0.20312600
H        4.32234500       2.45885900       0.94359400
H        5.10952300       4.03363100       1.11483100
H        3.63449700       3.67600300       2.04211600
H        4.99328000       4.48048900      -1.37406600
H        4.21525100       2.91951700      -1.67010900
H        3.43829700       4.41866900      -2.23401800
H        2.71196400       5.86314300       1.16546700
H        4.20640200       6.07496200       0.23610900
H        2.64231600       6.17541200      -0.59074500
N        3.68630100       0.43952100      -0.78887600
N       -3.88394900      -1.96638100       2.12036500
C       -5.59351200      -1.90483500      -1.04300200
C       -6.62062700      -0.22981400       0.58138200
C       -6.62703000       0.20565200      -1.87293000
H       -5.06854400      -2.44082200      -0.25042700
H       -6.57948500      -2.36504300      -1.16564400
H       -5.03700500      -2.02609500      -1.97850800
H       -6.13897100      -0.68986300       1.44610900
H       -6.78519200       0.83318800       0.78890600
H       -7.59423600      -0.71101800       0.43953300
H       -6.11328900       0.11145200      -2.83621600
H       -7.57152800      -0.34234100      -1.93683100
H       -6.85924900       1.26089200      -1.69132900
