71
Properties=species:S:1:pos:R:3 pbc="F F F"
Si       0.11797000      -0.95380500       0.57779700
O        1.69107700      -1.55983000      -0.22915400
C        2.79241600      -1.85386900       0.31641800
C        3.82936500      -2.54716800      -0.39484700
H        2.98784600      -1.52813700       1.34094700
C        3.65291700      -3.00001900      -1.72189200
C        5.05459300      -2.76022600       0.27348800
C        4.69397700      -3.65732600      -2.36241900
H        2.70484600      -2.83047700      -2.22174400
C        6.09288400      -3.41735000      -0.37805600
H        5.17451200      -2.40831800       1.29477500
C        5.91130500      -3.86540100      -1.69274700
H        4.56939100      -4.01118200      -3.38130600
H        7.03805200      -3.58368400       0.12928500
H        6.72144600      -4.38072100      -2.20135900
C        1.85483100      -4.17201300       2.12346000
C        0.86164800      -3.31989600       1.99544900
H        2.62325700      -4.03395800       2.88349800
H        1.92506500      -5.05643700       1.49127800
C       -0.06344700      -2.42807300       1.79439300
H       -1.02149600      -2.50206100       2.30808300
Cl       1.24018800       0.32280900       2.11094200
Cl      -1.01867800      -2.02062700      -1.06386400
O        0.23651500       0.45195200      -0.71351900
O       -1.46013400      -0.09486500       1.24090600
C       -1.05469600       2.28821700      -0.11084400
C       -2.27344100       1.47919300      -0.27209700
C       -3.56684800      -0.44504600       0.32313200
C        1.32451100       2.46992000      -0.31716500
C        1.31220700       3.84482900      -0.00621000
C       -1.11267700       3.64344700       0.19705600
C        0.04943800       4.39995100       0.25872600
C       -3.32181500       1.90920200      -1.07842700
C       -4.47513800       1.14686600      -1.20074900
C       -4.64172900      -0.06086400      -0.50495400
H       -2.07863800       4.08999700       0.40176500
H       -0.03343400       5.44710500       0.51603100
H       -3.20898500       2.83681300      -1.62677100
H       -5.25857800       1.50300400      -1.85564900
C       -5.91252800      -0.91117600      -0.64810600
C       -3.55798300      -1.59187500       1.17432700
N        0.16211400       1.73661300      -0.35165800
N       -2.42266300       0.31335100       0.40928600
C        2.48968100       1.71539700      -0.65636100
C        2.59511800       4.68627200       0.04839900
C        3.27121100       4.70591400      -1.34562700
C        2.29146000       6.14741400       0.43588500
C        3.55356900       4.10736700       1.11903300
H        2.58932800       5.12414700      -2.09430500
H        4.15750900       5.34639200      -1.28618800
H        3.59305100       3.71570700      -1.67367600
H        3.23867000       6.69362500       0.46458700
H        1.64100500       6.63414800      -0.29960500
H        1.82832800       6.21698100       1.42646600
H        3.88215000       3.09200400       0.88814100
H        4.44099400       4.74743000       1.16610900
H        3.07074400       4.10747500       2.10213200
N        3.44471200       1.12971900      -0.95842300
N       -3.58690300      -2.50305800       1.89229500
C       -5.53936800      -2.32065500      -1.17198100
C       -6.64235600      -1.00525500       0.71511600
C       -6.89453700      -0.28421900      -1.65752900
H       -4.90224900      -2.87438600      -0.47948400
H       -6.46438800      -2.89096000      -1.30908200
H       -5.02818400      -2.24603000      -2.13783200
H       -6.04252600      -1.49747200       1.48292200
H       -6.92174900      -0.00652900       1.06831700
H       -7.55639300      -1.59146700       0.57275300
H       -6.45034500      -0.20013000      -2.65553800
H       -7.76902300      -0.93736500      -1.72828300
H       -7.23533400       0.70488300      -1.33132200
