71
Properties=species:S:1:pos:R:3 pbc="F F F"
Si       0.01441300      -1.05376900       0.58922500
O        1.52924200      -1.79875600      -0.23927200
C        2.43473800      -2.48474200       0.31215100
C        3.62661900      -2.88197900      -0.38244400
H        2.29108500      -2.82998600       1.34019500
C        3.86409700      -2.52612900      -1.72936700
C        4.57055100      -3.65688000       0.32700200
C        5.03367000      -2.94403600      -2.34871300
H        3.13144100      -1.92754700      -2.25901500
C        5.74132700      -4.06703000      -0.30126100
H        4.37403200      -3.92104100       1.36269900
C        5.97065600      -3.71089000      -1.63674700
H        5.22670100      -2.67753800      -3.38338900
H        6.47275400      -4.66026600       0.23861600
H        6.88461800      -4.03236400      -2.12866300
C        3.66317100      -0.25231000       2.09587200
C        2.36610500      -0.08396300       1.98482300
H        4.07684700      -0.99714100       2.77444300
H        4.36360000       0.35412400       1.52454500
C        1.07760400       0.00829200       1.81822100
H        0.51786300       0.70128700       2.44811700
Cl      -1.18056800      -2.10622200      -0.96693500
Cl      -0.30038000      -2.67453800       2.06910000
O       -1.52715500      -0.07869800       1.23433600
O        0.14885800       0.34031500      -0.81470000
C       -2.24649800       1.52205000      -0.28969500
C       -0.97525800       2.24709300      -0.12706800
C        1.40361500       2.25805100      -0.38445900
C       -3.65916300      -0.30960000       0.32602700
C       -4.70318500       0.13287200      -0.51461000
C       -3.26166100       2.01191500      -1.10126300
C       -4.45920700       1.32006900      -1.22253600
C       -0.92792000       3.58533200       0.23992800
C        0.29141400       4.24712700       0.32199000
C        1.50207400       3.61103300       0.00826700
H       -3.08833900       2.92779000      -1.65394500
H       -5.21587800       1.71812500      -1.88476500
H       -1.85474700       4.09432700       0.47820200
H        0.29197200       5.28246300       0.63450500
C        2.84839000       4.34527200       0.09151200
C        2.49724200       1.45275100      -0.82414900
N       -2.46713900       0.37325500       0.40266700
N        0.18966300       1.61236600      -0.42582200
C       -3.74159800      -1.43693200       1.19863400
C       -6.02696300      -0.63393900      -0.65596300
C       -5.74707800      -2.07584700      -1.14940400
C       -6.77618900      -0.64970300       0.69988600
C       -6.95445300       0.03632700      -1.68927300
H       -5.14636500      -2.65603200      -0.44640200
H       -6.70752000      -2.58675300      -1.27510500
H       -5.23498100      -2.05512800      -2.11759800
H       -7.72787700      -1.17290500       0.55765100
H       -6.22052600      -1.16712100       1.48381800
H       -6.98816100       0.37347300       1.02995000
H       -6.49306500       0.07461600      -2.68231700
H       -7.86807500      -0.56102500      -1.76076900
H       -7.23595200       1.05056800      -1.38476500
N       -3.86855300      -2.32832300       1.93026600
N        3.40122000       0.84002500      -1.21671500
C        3.79348300       3.60324900       1.06906300
C        3.47917300       4.43994900      -1.32007200
C        2.67215800       5.78205000       0.62207300
H        4.05472400       2.60189600       0.72355900
H        4.72002800       4.18044200       1.15609200
H        3.33538200       3.52698700       2.06106500
H        3.69723100       3.46029800      -1.74996400
H        2.81421200       4.98578500      -1.99870900
H        4.42163400       4.99190800      -1.23852600
H        2.23491800       5.79058600       1.62688500
H        3.66104100       6.24649500       0.67701300
H        2.05034700       6.38849000      -0.04562700
