77
Properties=species:S:1:pos:R:3 pbc="F F F"
Si       0.35163000      -1.55776300       1.20349300
O       -1.35086600      -1.42359600       0.32068400
C       -1.64756100      -1.51692500      -0.90389800
C       -3.00734300      -1.69356900      -1.33890300
H       -0.87219500      -1.38415000      -1.66226400
C       -4.04870000      -1.96613300      -0.42421600
C       -3.28313800      -1.57127700      -2.71787500
C       -5.34719800      -2.11059100      -0.89190800
H       -3.81898900      -2.06491300       0.63148800
C       -4.59017600      -1.70393100      -3.17499100
H       -2.46937700      -1.37244500      -3.41124500
C       -5.61880100      -1.97541500      -2.26300200
H       -6.15428200      -2.32427900      -0.19805300
H       -4.81175400      -1.60522100      -4.23311800
H       -6.63853400      -2.08592100      -2.62122100
C       -0.72960100      -4.32106000      -1.48612800
C        0.00211600      -3.86214900      -0.49312200
H       -0.42410000      -4.18609400      -2.52310000
H       -1.64622900      -4.87916600      -1.29975800
C        0.65828500      -3.32166600       0.48955000
H        1.45757400      -3.87269500       0.98576300
Cl      -0.70302100      -2.21712600       3.01539800
Cl       2.31701500      -1.35867300       2.22925900
O        1.10176200      -0.81258400      -0.48773300
O        0.03365500       0.29907400       1.69553700
C        1.61511700       1.42654700      -0.19073400
C        0.16083800       1.68130700      -0.16874100
C       -1.89750100       1.43328200       1.03446100
C        3.33089400      -0.19165200      -0.62116600
C        4.34631700       0.78301700      -0.51708000
C        2.57580000       2.43018200      -0.04781900
C        3.92033800       2.07619400      -0.20372100
C       -0.47343600       2.49725500      -1.11204900
C       -1.83368600       2.76533100      -0.93976600
C       -2.58061600       2.28696100       0.14132300
H        4.65548600       2.85979600      -0.07362900
H       -2.31543600       3.38925800      -1.68129900
C       -4.05481900       2.67796700       0.33520300
C       -2.47502000       0.84430200       2.19761700
N        2.01764400       0.15168300      -0.43293700
N       -0.57225500       1.13172100       0.83572800
C        3.53067400      -1.56958900      -0.93505900
C        5.83150600       0.44136000      -0.70657400
C        6.26453200      -0.61431800       0.34113900
C        6.06692200      -0.08237400      -2.14451700
C        6.72544100       1.68206400      -0.51203900
H        5.72836000      -1.55953400       0.23531600
H        7.33294600      -0.81409300       0.20537400
H        6.10746300      -0.23170200       1.35541800
H        7.13604500      -0.28732700      -2.26528500
H        5.52163400      -1.00549300      -2.35151100
H        5.77351900       0.67585700      -2.87914200
H        6.63609800       2.09157900       0.50050200
H        7.76516700       1.37720000      -0.66291600
H        6.49204700       2.46860100      -1.23871900
N        3.71451100      -2.67627800      -1.23249700
N       -2.98478400       0.41919600       3.14925100
C       -4.95173100       1.41749200       0.32458700
C       -4.20752200       3.45439500       1.66760800
C       -4.54617400       3.60083500      -0.79801700
H       -4.72160700       0.72674800       1.13684400
H       -5.99310600       1.73690300       0.43893500
H       -4.85344400       0.88707600      -0.62763900
H       -3.94677600       2.85025300       2.53864500
H       -3.58238100       4.35422400       1.65916900
H       -5.25432000       3.76021000       1.76884900
H       -4.49013500       3.10798100      -1.77522900
H       -5.59406900       3.84652500      -0.60283900
H       -3.97878200       4.53747700      -0.83499900
C        2.21566800       3.85090100       0.28683800
H        2.46868400       4.50835400      -0.55289500
H        1.15770100       3.97237400       0.52498600
H        2.80851200       4.17762900       1.14791900
C        0.26777600       3.07534000      -2.28547500
H       -0.39806400       3.12800200      -3.15154300
H        0.59485800       4.09681000      -2.05711900
H        1.14936000       2.48554200      -2.54762200
