77
Properties=species:S:1:pos:R:3 pbc="F F F"
Si       0.36556700      -0.96401200       0.84712700
O        2.09176800      -1.49224700       0.24173900
C        2.71286400      -2.56728500       0.45512700
C        3.90378400      -2.92248900      -0.26742700
H        2.34681100      -3.25498300       1.22416000
C        4.44927900      -2.08732700      -1.26913700
C        4.52237200      -4.15246800       0.04916100
C        5.59714000      -2.48689500      -1.93950400
H        3.97032600      -1.14057800      -1.49359000
C        5.67126300      -4.54423900      -0.63033900
H        4.09120500      -4.78501600       0.82063400
C        6.20610800      -3.71250100      -1.62263200
H        6.02656300      -1.85178900      -2.70847000
H        6.15075900      -5.48898800      -0.39358400
H        7.10360700      -4.01851800      -2.15325900
C        0.34779100      -4.51594100      -0.91158500
C       -0.09522500      -3.29290800      -0.74679200
H       -0.10283000      -5.35506800      -0.38313300
H        1.16809800      -4.72897000      -1.59596900
C       -0.45297600      -2.06034100      -0.52426100
H       -1.19144800      -1.60771800      -1.18453500
Cl       1.40810100       0.49130900       2.18169600
Cl       0.20982900      -2.43780700       2.48310400
O        0.44949300       0.37454000      -0.63988100
O       -1.27581800      -0.10027400       1.38381700
C       -0.98697900       2.12016400      -0.13967500
C       -2.10367400       1.17719100      -0.37184300
C       -3.27517100      -0.77285000       0.39631800
C        1.37151400       2.48863800      -0.34116900
C        1.24169600       3.85020600       0.00670100
C       -1.17746600       3.45298300       0.23300300
C       -0.05228900       4.28038900       0.31128400
C       -3.05730100       1.36617200      -1.37736900
C       -4.11433800       0.45479500      -1.46212800
C       -4.27961400      -0.61935000      -0.58348200
H       -0.21224700       5.30498400       0.62106700
H       -4.83539700       0.60539900      -2.25543600
C       -5.46844200      -1.58467900      -0.70266000
C       -3.25639500      -1.79078300       1.39541100
N        0.27469100       1.66813500      -0.37267700
N       -2.21882300       0.10116800       0.45321600
C        2.59034900       1.84202700      -0.70643800
C        2.44953500       4.79661600       0.07923100
C        3.46391500       4.27044600       1.12476900
C        3.10978500       4.91497300      -1.31699800
C        2.02827000       6.21379000       0.51439700
H        3.87086200       3.29142400       0.86379000
H        4.29738500       4.97890500       1.18224400
H        2.99385100       4.20491400       2.11191600
H        3.93816200       5.62792400      -1.24535600
H        3.51270600       3.96556500      -1.67484400
H        2.38839200       5.29390800      -2.04959400
H        1.57469000       6.21250900       1.51181700
H        2.92555300       6.83849000       0.55109500
H        1.32793500       6.66504300      -0.19754400
N        3.58944300       1.35979900      -1.04669600
N       -3.30503700      -2.61414300       2.21168000
C       -4.95079600      -3.01815400      -0.97984400
C       -6.31420300      -1.54242700       0.59460900
C       -6.39601600      -1.19365000      -1.86934500
H       -4.33049300      -3.40837300      -0.17065100
H       -5.81668000      -3.67943400      -1.09200300
H       -4.37366200      -3.04071000      -1.91097600
H       -5.75841000      -1.87248400       1.47397200
H       -6.69035700      -0.52851800       0.77087900
H       -7.17081100      -2.21228700       0.46488300
H       -5.87579000      -1.23322600      -2.83278200
H       -7.22124100      -1.91118800      -1.90086500
H       -6.82016200      -0.19299900      -1.73065200
C       -2.53636200       4.00630700       0.55915800
H       -2.91114800       4.60016000      -0.28295500
H       -3.26261200       3.22187200       0.78202100
H       -2.45902100       4.67394400       1.42246300
C       -2.96558100       2.49598400      -2.36478800
H       -3.28430300       2.14539500      -3.35084600
H       -3.64128800       3.30697900      -2.06871900
H       -1.95424000       2.90085200      -2.44113400
