77
Properties=species:S:1:pos:R:3 pbc="F F F"
Si      -0.41568100      -1.81117200      -0.58456400
O        1.20333500      -1.24922300       0.49043700
C        2.28604800      -1.86943900       0.59382200
C        3.35690400      -1.40579300       1.43595200
H        2.43714300      -2.78757000       0.01261300
C        3.19773300      -0.29146000       2.29111900
C        4.59305400      -2.08269500       1.37094300
C        4.26756300       0.13498900       3.06405900
H        2.23668700       0.20958700       2.33673900
C        5.66481600      -1.63914400       2.14011900
H        4.69988300      -2.93983000       0.71155700
C        5.50059900      -0.53489200       2.98481900
H        4.15590000       0.98651300       3.72835700
H        6.62175800      -2.14862900       2.08858600
H        6.33593500      -0.19224800       3.58899400
C        1.58580000      -5.11883400      -1.80641200
C        1.10686800      -3.90082700      -1.87227700
H        2.58891600      -5.31480000      -1.42934400
H        0.99236200      -5.97470700      -2.12556900
C        0.62786800      -2.68772600      -1.92888800
H        0.79092300      -2.10728200      -2.83660500
Cl      -2.32402700      -1.94862600      -1.69699200
Cl      -0.70902200      -3.46953600       0.79902200
O       -1.17298200      -0.65802700       0.76277300
O       -0.06245200      -0.09612200      -1.58281700
C       -1.63500200       1.46513600      -0.06319300
C       -0.17798900       1.69978500      -0.12564300
C        1.87069000       1.15100200      -1.24202300
C       -3.39700100       0.00764600       0.65974700
C       -4.38927100       0.94569300       0.30405200
C       -2.57321700       2.42679300      -0.45198200
C       -3.92809800       2.13178400      -0.27447600
C        0.47088800       2.71376300       0.58595100
C        1.83320400       2.92021200       0.34738500
C        2.56983100       2.18698500      -0.58694900
H       -4.64410500       2.87511800      -0.60048700
H        2.32217700       3.70103600       0.91591700
C        4.04489700       2.50147400      -0.88590600
C        2.42849800       0.27062400      -2.21520500
N       -2.07204900       0.27741700       0.43220400
N        0.54362800       0.91834100      -0.97343400
C       -3.64558800      -1.23960200       1.30732900
C       -5.88727100       0.68014100       0.52044800
C       -6.31293900      -0.59651900      -0.24639000
C       -6.17658700       0.53851900       2.03550500
C       -6.74806200       1.84456000      -0.00866000
H       -5.80403800      -1.49442700       0.10875400
H       -7.38926800      -0.73937600      -0.10325500
H       -6.11633500      -0.48011300      -1.31780600
H       -7.25305800       0.38402900       2.16589900
H       -5.65645000      -0.30877500       2.48589400
H       -5.89004200       1.45450400       2.56464100
H       -6.60722600       1.99638100      -1.08480800
H       -7.79886300       1.59409500       0.16465300
H       -6.53192400       2.78135100       0.51723000
N       -3.88979400      -2.21511300       1.88620300
N        2.90369100      -0.42825600      -3.01112800
C        4.94015000       1.27381000      -0.58738300
C        4.18007800       2.92732400      -2.36956700
C        4.55569400       3.66713300      -0.01669300
H        4.70177000       0.41193800      -1.21277500
H        5.98001200       1.55432400      -0.78528000
H        4.85354600       0.98380100       0.46357800
H        3.89401700       2.13193000      -3.06136400
H        3.56549600       3.81181900      -2.57049200
H        5.22818100       3.18108500      -2.56106500
H        4.50838600       3.42611800       1.05131200
H        5.60197300       3.85246200      -0.27675000
H        3.99089700       4.58782100      -0.20115800
C       -0.24033400       3.56458600       1.60075700
H       -0.36741900       4.58198800       1.21313900
H       -1.22064500       3.16699100       1.86961000
H        0.37328700       3.63471500       2.50462200
C       -2.16186000       3.74072100      -1.05498800
H       -2.88860000       4.03905600      -1.81560000
H       -2.14941900       4.52006400      -0.28363500
H       -1.16981100       3.69193900      -1.50901100
