77
Properties=species:S:1:pos:R:3 pbc="F F F"
Si       0.38346400      -1.44408600       0.91960200
O        2.00267100      -2.47409200       0.59559400
C        2.69598100      -2.46139800      -0.45875000
C        3.99522000      -3.06630300      -0.54329200
H        2.28838600      -2.00117200      -1.36610100
C        4.60183700      -3.69913300       0.56626200
C        4.66334200      -3.01158100      -1.78664800
C        5.86027900      -4.26578000       0.42270000
H        4.07582600      -3.73337000       1.51482300
C        5.92467500      -3.58199400      -1.91969800
H        4.18459600      -2.51984200      -2.62921000
C        6.52031600      -4.20689800      -0.81662600
H        6.33671500      -4.75526400       1.26653800
H        6.44449400      -3.54355100      -2.87178100
H        7.50574100      -4.65274600      -0.91961900
C        3.69680100       0.48752000      -0.09288700
C        2.54179700       0.34394900       0.50234800
H        3.76215100       0.88150700      -1.10537900
H        4.62421300       0.24120500       0.42152900
C        1.38337000       0.13846400       1.07223000
H        0.92644600       0.93047900       1.66368700
Cl      -0.44685500      -2.19507400      -0.87223600
Cl       0.12533800      -2.54313100       2.67450500
O       -1.24884100      -0.45298900       1.34877500
O       -0.10622200       1.35034800      -1.98050700
C       -2.12798100       0.99250700      -0.26797100
C       -1.04000800       1.94324700       0.03477400
C        0.92692300       3.03639700      -0.77185100
C       -3.27722700      -1.01964600       0.35504800
C       -4.30779900      -0.78765000      -0.57555800
C       -3.13446000       1.27832400      -1.20158300
C       -4.18685300       0.37636800      -1.34498900
C       -1.01609900       2.72442000       1.18967100
C        0.00419400       3.66689800       1.34013700
C        0.99860600       3.85370100       0.37549400
H       -4.95014500       0.61275400      -2.07486100
H        0.00133500       4.26940300       2.23833600
C        2.10775500       4.90301600       0.56039700
C        1.85219800       3.04020500      -1.85393900
N       -2.21185200      -0.15208000       0.45822500
N       -0.08379800       2.09094700      -0.94148500
C       -3.23493000      -2.11878000       1.26233000
C       -5.49650500      -1.74783800      -0.74757000
C       -4.98291500      -3.15208100      -1.15252500
C       -6.31370500      -1.81642500       0.56591500
C       -6.44975500      -1.26863300      -1.85995300
H       -4.34660200      -3.60659900      -0.39073300
H       -5.85012200      -3.80444700      -1.30102200
H       -4.42434800      -3.09583300      -2.09337300
H       -7.17276900      -2.47579600       0.40133400
H       -5.73696100      -2.21626000       1.40205700
H       -6.68625700      -0.82154500       0.83421000
H       -5.94285000      -1.20850000      -2.82963300
H       -7.26326500      -1.99519400      -1.94581900
H       -6.88927100      -0.29298200      -1.62434800
N       -3.25092200      -3.01395500       2.00119900
N        2.62159800       3.03741700      -2.72526600
C        3.49158700       4.20977600       0.59629500
C        2.04640800       5.93805400      -0.58953700
C        1.94379900       5.67494200       1.88501500
H        3.73037300       3.70359700      -0.34086700
H        4.25742400       4.97252700       0.77567900
H        3.53124900       3.47750500       1.41001000
H        2.21723100       5.48738200      -1.56961700
H        1.07293700       6.44148500      -0.59684700
H        2.82463800       6.69115900      -0.42303800
H        2.01182100       5.00906000       2.75256200
H        2.75285500       6.40858400       1.95472100
H        0.99056100       6.21392200       1.92342500
C       -3.07059900       2.53788600      -2.01404800
H       -2.89299600       3.40592600      -1.36928900
H       -2.23586600       2.47564400      -2.72237700
H       -4.00032000       2.68465800      -2.56793500
C       -2.07192700       2.55166700       2.24623300
H       -1.98739800       3.33576500       3.00208300
H       -3.07574600       2.58844300       1.80774900
H       -1.95879300       1.57714900       2.73594100
