89
Properties=species:S:1:pos:R:3 pbc="F F F"
Si       0.15193600       0.75742800       0.70041700
O       -1.42178200       1.80444700       0.33055000
C       -1.66583200       3.00475100       0.60588100
C       -2.69121100       3.75455300      -0.07474700
H       -1.09364900       3.50191500       1.39681200
C       -3.37149800       3.23019800      -1.19479400
C       -2.98271500       5.05474100       0.39025100
C       -4.33155900       4.00214600      -1.83509500
H       -3.13230400       2.23215700      -1.54247100
C       -3.95311100       5.81785900      -0.25219000
H       -2.44448800       5.44965500       1.24812300
C       -4.62373900       5.29212300      -1.36423700
H       -4.85734400       3.60877400      -2.69989400
H       -4.18544200       6.81736300       0.10245700
H       -5.37602000       5.89103800      -1.87038400
C        0.68632400       4.05011500      -1.46918600
C        0.84933400       2.76910900      -1.23320900
H        1.39192600       4.78566000      -1.08364900
H       -0.14331500       4.41477800      -2.07298700
C        0.95385000       1.51615600      -0.89955200
H        1.48551500       0.83868200      -1.56821500
Cl      -0.97109600      -0.17823300       2.42014500
Cl       1.05781500       2.24924400       2.10716400
O       -0.61437000      -0.49386000      -0.53430700
O        1.51555200      -0.46931200       1.07832700
C        0.23071400      -2.59645300      -0.09122800
C        1.56130000      -2.13523200      -0.52838900
C        3.45725000      -0.66405500      -0.22351000
C       -2.15023700      -2.18981500      -0.01224600
C       -2.38984500      -3.51886100       0.38922700
C        0.02117400      -3.91473400       0.28387900
C       -1.26548900      -4.35021300       0.54814400
C        2.25191300      -2.81416300      -1.51698700
C        3.53302700      -2.41111600      -1.86816800
C        4.18455500      -1.34409000      -1.23014900
H        0.87094900      -4.58169500       0.36628000
H       -1.40339100      -5.38096600       0.84934700
H        1.77536400      -3.65384800      -2.00871400
H        4.03263800      -2.96897700      -2.64761900
C        5.62101000      -0.96256600      -1.66335900
C        3.97847800       0.42591100       0.64053700
N       -0.84660200      -1.77124100      -0.18129400
N        2.17527300      -1.07542400       0.06866600
C       -3.18751800      -1.20883000      -0.43400400
C       -3.76403000      -4.18875200       0.63575700
C       -5.01951200      -3.30376700       0.53425900
C       -3.92005700      -5.32916900      -0.40348000
C       -3.76060000      -4.78430100       2.06873900
H       -5.14994700      -2.87021400      -0.45887100
H       -5.88223800      -3.94697600       0.74127600
H       -5.01020000      -2.50052200       1.27360300
H       -4.86619600      -5.84929500      -0.21697300
H       -3.94259000      -4.91870400      -1.41960300
H       -3.10837700      -6.06116400      -0.33960100
H       -3.64770000      -3.98769800       2.81259000
H       -4.71917600      -5.28658100       2.23838100
H       -2.96543100      -5.51960100       2.22154600
C       -3.84690800      -0.36930000       0.46733100
C       -3.54057600      -1.19537200      -1.79055700
C       -5.25889100       0.44289000      -1.32580700
C       -4.57766800      -0.37193600      -2.23402900
C       -4.88256500       0.45132800       0.02030500
H       -3.56048000      -0.37351000       1.51153000
H       -5.39656400       1.09784800       0.72569500
H       -6.06953900       1.07984200      -1.66782500
H       -4.85614300      -0.37545400      -3.28411700
H       -3.02188500      -1.84522400      -2.49010100
C        4.41997500       0.09895800       1.93088700
C        4.06902700       1.74308700       0.18453200
C        5.10393700       2.39437600       2.27320000
C        4.63721100       2.72392700       0.99933700
C        4.98459100       1.08102400       2.74169100
H        4.33785900      -0.92390200       2.28626200
H        5.33394100       0.82148300       3.73701300
H        5.54881400       3.15822400       2.90500100
H        4.70566700       3.74610900       0.63830700
H        3.67843100       2.00785300      -0.78957900
C        6.56986500      -0.69985300      -0.46815500
H        6.34793100       0.23229400       0.04958300
H        6.52928300      -1.52284300       0.25393600
H        7.59217500      -0.63371000      -0.85602700
C        5.55170700       0.29276300      -2.56659600
H        6.55843700       0.50982200      -2.94221800
H        4.89175600       0.11561800      -3.42370300
H        5.19596500       1.16609300      -2.01795100
C        6.26546300      -2.09337900      -2.50103100
H        5.75930400      -2.23874200      -3.46146200
H        7.29853800      -1.80711200      -2.71886500
H        6.27783000      -3.04355200      -1.95470400
