89
Properties=species:S:1:pos:R:3 pbc="F F F"
Si      -0.10962600      -0.86337000       0.34246800
O        1.47519400      -1.68110000      -0.30396500
C        2.34695700      -2.30018000       0.36086800
C        3.36443100      -3.09872300      -0.27365100
H        2.37010900      -2.19105600       1.44838100
C        3.40123100      -3.28302100      -1.67185300
C        4.36102900      -3.66674100       0.54521400
C        4.42971300      -4.02579300      -2.23665600
H        2.62874900      -2.83511000      -2.28793300
C        5.39120500      -4.40495800      -0.02867100
H        4.31902000      -3.51578400       1.62070500
C        5.42480800      -4.58291400      -1.41774100
H        4.46812300      -4.17288200      -3.31183700
H        6.16463300      -4.84145200       0.59584400
H        6.22907900      -5.15947600      -1.86655300
C        0.65742300      -4.64632900       1.45234700
C       -0.08099500      -3.56012200       1.37276900
H        1.32266000      -4.81865500       2.29787200
H        0.61070400      -5.41969400       0.68617000
C       -0.74148400      -2.44797100       1.24173700
H       -1.75257100      -2.36699500       1.64152000
Cl       0.93864200      -0.08814600       2.23882700
Cl      -1.08172100      -1.47410800      -1.62990700
O        0.45951900       0.59346800      -0.67893100
O       -1.55730700       0.13501000       0.95481700
C       -0.55863900       2.53200000       0.06048300
C       -1.87164900       2.00751000      -0.36243400
C       -3.61507000       0.34435500      -0.12757700
C        1.85779800       2.34014200       0.01633700
C        1.99493500       3.66446900       0.47832600
C       -0.44512000       3.80896600       0.59128900
C        0.81058300       4.34510500       0.81741900
C       -2.69940200       2.75097400      -1.18672200
C       -3.97484500       2.28983100      -1.48449400
C       -4.48614400       1.09581200      -0.95043100
H       -1.34596300       4.37126100       0.80658400
H        0.87219200       5.34151500       1.23620600
H       -2.33651400       3.68920300      -1.58908200
H       -4.58709100       2.90396000      -2.12993600
C       -5.93633300       0.66988600      -1.28021400
C       -3.95193600      -0.89560900       0.62242400
N        0.58537200       1.82833500      -0.15464700
N       -2.34822800       0.82403800       0.11345300
C        2.95869700       1.41420300      -0.35938500
C        3.30534700       4.47667200       0.62406900
C        4.60428800       3.82035900       0.11864900
C        3.14023500       5.79128500      -0.18912900
C        3.49677300       4.81643600       2.12237600
H        4.52113900       3.48706800      -0.91904800
H        5.39353100       4.57824100       0.17493400
H        4.90955700       2.97426300       0.73431600
H        4.05629700       6.38131000      -0.08092300
H        2.99347400       5.56818600      -1.25214300
H        2.30406300       6.40564000       0.15764400
H        3.62772800       3.90166500       2.71105000
H        4.39497900       5.43442100       2.23293800
H        2.64603400       5.37404300       2.52775300
C        3.74635100       0.81146300       0.62730600
C        3.21444700       1.15455600      -1.71159100
C        5.06337800      -0.27730600      -1.08742100
C        4.26790100       0.31370600      -2.07301100
C        4.79729100      -0.03075400       0.26168600
H        3.53711200       1.00379000       1.67264200
H        5.40370300      -0.49728700       1.03235600
H        5.87508700      -0.94152500      -1.36936400
H        4.46299300       0.11787700      -3.12344400
H        2.59413200       1.61202200      -2.47645200
C       -4.21791400      -0.78791900       1.99608400
C       -4.00249300      -2.14601600       0.00097900
C       -4.62900000      -3.17006200       2.10483700
C       -4.34615700      -3.27931900       0.74179700
C       -4.55799200      -1.92092000       2.73252100
H       -4.16443800       0.18230400       2.48059300
H       -4.76692100      -1.82918200       3.79451000
H       -4.89335400      -4.05330300       2.67953100
H       -4.37818700      -4.24818000       0.25201200
H       -3.74137300      -2.23957100      -1.04484000
C       -6.72253200       0.20884400      -0.02791400
H       -6.37422800      -0.74738000       0.36076200
H       -6.66152800       0.95716900       0.77051700
H       -7.77446300       0.09377100      -0.31139400
C       -5.90673100      -0.46635300      -2.33053400
H       -6.93688700      -0.69388000      -2.62880200
H       -5.34748400      -0.15639800      -3.22056500
H       -5.45888100      -1.37645400      -1.92981000
C       -6.73230100       1.84383500      -1.89784200
H       -6.34744500       2.13066500      -2.88252100
H       -7.76724900       1.51706100      -2.03449700
H       -6.73119400       2.72229000      -1.24237700
