89
Properties=species:S:1:pos:R:3 pbc="F F F"
Si      -0.15219600      -0.92857700       0.35686500
O        1.19613400      -2.09783300      -0.37522100
C        2.43318200      -2.15190900      -0.17653000
C        3.22020200      -3.26247500      -0.65116600
H        2.93095300      -1.34936500       0.37399400
C        2.65812100      -4.27133300      -1.46633500
C        4.57460900      -3.33808800      -0.26354200
C        3.45096700      -5.32887100      -1.89104900
H        1.61407800      -4.20270700      -1.75397400
C        5.35879500      -4.40740900      -0.68469900
H        4.99116300      -2.56193500       0.36884800
C        4.79849800      -5.39760900      -1.50099500
H        3.03001100      -6.10514500      -2.52284100
H        6.39954700      -4.47335800      -0.38272000
H        5.41193700      -6.22988100      -1.83525500
C        2.50197200      -1.83003800       3.27974600
C        1.69132700      -1.05694200       2.59763900
H        3.55135800      -1.93155300       3.00366900
H        2.15526700      -2.38572700       4.15000600
C        0.89334400      -0.32864300       1.86908000
H        0.77998600       0.72344000       2.13776700
Cl      -1.24317200      -1.45654000      -1.56695700
Cl      -0.98080700      -2.71334300       1.39705600
O       -1.50387200       0.22315100       0.93590900
O        0.60498600       0.48235300      -0.74683800
C       -1.76274700       1.92117300      -0.60391900
C       -0.45829600       2.46905300      -0.18870200
C        1.94335100       2.28519400      -0.06115600
C       -3.59123700       0.41728400      -0.12894900
C       -4.40859900       1.06624800      -1.08695500
C       -2.53359400       2.56362000      -1.55507900
C       -3.82532500       2.12011000      -1.80678900
C       -0.37494800       3.78190900       0.24181700
C        0.86283100       4.35671900       0.48541000
C        2.06086600       3.65367400       0.28574100
H       -2.11644400       3.41017900      -2.08725100
H       -4.39346400       2.64412100      -2.56228300
H       -1.28879900       4.35160300       0.36094600
H        0.87847400       5.39009400       0.80119800
C        3.40317800       4.41988900       0.43918600
C        3.09244100       1.36709100      -0.24718700
N       -2.29918100       0.85123700       0.04181200
N        0.69356700       1.74512800      -0.29341600
C       -4.02934400      -0.64376700       0.81349900
C       -5.87503900       0.66512200      -1.38229300
C       -6.72008000       0.48553200      -0.09728500
C       -6.58606200       1.74534500      -2.23290400
C       -5.89045600      -0.64190300      -2.21127300
H       -6.63443300       1.36265400       0.55418800
H       -7.76915300       0.38009200      -0.39487600
H       -6.44240300      -0.40157800       0.47055400
H       -7.63139600       1.44604900      -2.35371400
H       -6.56209300       2.72688500      -1.74568300
H       -6.15353500       1.83123400      -3.23553500
H       -5.50910200      -1.48970700      -1.64208400
H       -6.92590600      -0.85989500      -2.49772000
H       -5.29409100      -0.52770200      -3.12361900
C       -4.17322200      -1.97618500       0.42139400
C       -4.33214800      -0.26379200       2.12986900
C       -4.99769200      -2.53514600       2.62859400
C       -4.81824500      -1.20726100       3.03258900
C       -4.66695200      -2.91705100       1.32679800
H       -3.87149400      -2.27957200      -0.57314400
H       -4.77681700      -3.95198100       1.01587400
H       -5.38232700      -3.26964300       3.33087100
H       -5.06118600      -0.90590600       4.04766500
H       -4.20793100       0.77127400       2.43512800
C        3.46556500       0.96508100      -1.53729000
C        3.86454700       0.98029400       0.85409700
C        5.44224200      -0.09641200      -0.63175000
C        5.04199500       0.25580900       0.66006800
C        4.63989300       0.23845700      -1.72739200
H        2.85387200       1.24871900      -2.38766900
H        4.93382200      -0.05669600      -2.73024700
H        6.36499900      -0.64850000      -0.78358200
H        5.64205000      -0.03263100       1.51828500
H        3.54533800       1.24198600       1.85500500
C        4.47710100       3.99618500      -0.59309100
H        4.90594000       3.01731800      -0.38465600
H        4.06793500       3.99476600      -1.60931200
H        5.29070900       4.72810300      -0.55326800
C        3.95031700       4.23617400       1.87514400
H        4.82302700       4.88726200       2.00252800
H        3.19600600       4.52112100       2.61753200
H        4.26364600       3.20804600       2.06383200
C        3.17775700       5.94131200       0.22877200
H        2.60112300       6.39584800       1.04067100
H        4.15626700       6.43051900       0.21957700
H        2.67807400       6.14568600      -0.72475200
