89
Properties=species:S:1:pos:R:3 pbc="F F F"
Si      -0.10318400      -0.94875600       0.37783300
O        1.45157400      -1.83682700      -0.29996800
C        2.04639600      -2.83362900       0.18546800
C        3.23872500      -3.38026000      -0.40817400
H        1.63028600      -3.33383500       1.06330000
C        3.76290500      -2.88497000      -1.62118500
C        3.86610300      -4.46024800       0.24976900
C        4.90186800      -3.46670400      -2.16156200
H        3.26801000      -2.05731800      -2.11607300
C        5.01337100      -5.02960700      -0.29311800
H        3.44668200      -4.83470000       1.17993000
C        5.52815600      -4.53309500      -1.49809600
H        5.31166900      -3.09480600      -3.09571200
H        5.50412300      -5.85684800       0.21032800
H        6.42041500      -4.98193700      -1.92613700
C        2.92874200      -1.51043100       2.93979600
C        1.88198700      -0.86570100       2.47780500
H        2.82224600      -2.31350000       3.66800700
H        3.93667300      -1.25112500       2.61913100
C        0.84708800      -0.29094200       1.93889700
H        0.43786000       0.60309500       2.41197600
Cl      -1.07219400      -1.60291500      -1.55032300
Cl      -0.87626300      -2.77007200       1.45285100
O       -1.58530900       0.05337700       0.95236700
O        0.47595500       0.51724800      -0.72291400
C       -1.85744300       1.89342700      -0.41340600
C       -0.56355600       2.42332300       0.05706200
C        1.84985000       2.27296900       0.02887200
C       -3.63778200       0.27539000      -0.16427900
C       -4.44916800       0.99345100      -1.06545100
C       -2.63909000       2.62247900      -1.29564600
C       -3.89838500       2.15735400      -1.63300700
C       -0.48271300       3.67609100       0.64392900
C        0.76021200       4.21366600       0.93080600
C        1.95978800       3.56544500       0.58260800
H       -2.24795000       3.54485300      -1.70776400
H       -4.48625400       2.73909300      -2.33204000
H       -1.39620700       4.21761300       0.85944000
H        0.79920900       5.18973900       1.39710500
C        3.25353200       4.38663900       0.81787800
C        2.97179800       1.43445400      -0.46531400
N       -2.35936100       0.73363200       0.08548200
N        0.59011700       1.74011400      -0.17281900
C       -4.06353400      -0.87643700       0.67323700
C       -5.90837900       0.67133300      -1.47243400
C       -6.54914700      -0.60093900      -0.88931600
C       -6.79201400       1.86882900      -1.03396200
C       -5.95420100       0.52527100      -3.01593500
H       -6.58888800      -0.58978700       0.20171400
H       -7.57597100      -0.64494600      -1.26975400
H       -6.02879900      -1.50365000      -1.21368500
H       -7.82398000       1.67716300      -1.34756600
H       -6.77402000       1.97861600       0.05645100
H       -6.46815500       2.81176100      -1.48571300
H       -5.33211000      -0.31769900      -3.33696500
H       -6.98916600       0.32970900      -3.31731700
H       -5.61602000       1.42673700      -3.53555500
C       -4.04421800      -2.18940000       0.19977800
C       -4.52882100      -0.60170700       1.96687700
C       -4.99531200      -2.95342900       2.29156800
C       -4.99549400      -1.63999700       2.77332100
C       -4.51610700      -3.22432500       1.00766800
H       -3.66610700      -2.39527100      -0.79404000
H       -4.50286200      -4.24410000       0.63364400
H       -5.36220300      -3.76191500       2.91811400
H       -5.36151800      -1.42261700       3.77291700
H       -4.53919500       0.42153100       2.33249400
C        3.22292700       1.39559000      -1.84348000
C        3.80761200       0.74582400       0.41700300
C        5.18200500       0.03416900      -1.44237700
C        4.90970500       0.04477400      -0.07223400
C        4.33274200       0.70395200      -2.32870400
H        2.56476000       1.92377500      -2.52725500
H        4.53432800       0.69012400      -3.39605300
H        6.04587900      -0.50449300      -1.81985100
H        5.56230600      -0.48388200       0.61667500
H        3.60813600       0.78849100       1.48053400
C        4.59125700       3.76718500       0.37136400
H        4.86123900       2.89480000       0.96694200
H        4.59107400       3.48739300      -0.68471600
H        5.36410300       4.52878800       0.52402000
C        3.36697200       4.67428500       2.33613300
H        4.25378400       5.29357700       2.51105800
H        2.49552100       5.21085400       2.72477700
H        3.47960000       3.73746700       2.89400300
C        3.11096500       5.72361000       0.03940600
H        2.24178200       6.30891800       0.35395000
H        4.00672800       6.32725700       0.21996900
H        3.03223100       5.53172000      -1.03682400
