57
Properties=species:S:1:pos:R:3 pbc="F F F"
Si       0.00628500      -0.71859700       0.46184600
O        1.78865400      -0.84735800      -0.26858900
C        2.79668900      -1.22306600       0.38329800
C        4.09222700      -1.38185500      -0.21656700
H        2.69301500      -1.42456600       1.45431300
C        4.31965500      -1.13694900      -1.59063700
C        5.15361700      -1.79359800       0.61898900
C        5.59517700      -1.30347100      -2.11101800
H        3.49300300      -0.82478900      -2.22072400
C        6.42888200      -1.95782500       0.08752400
H        4.96262000      -1.97949300       1.67265100
C        6.64726700      -1.71278300      -1.27394200
H        5.78226600      -1.11957600      -3.16456000
H        7.24967200      -2.27456300       0.72338700
H        7.64289700      -1.84146100      -1.68950000
C        1.58727000      -4.34560800       1.12282300
C        0.83811500      -3.30848600       1.41553300
H        2.63646100      -4.38669600       1.41502400
H        1.18030800      -5.20438900       0.59011600
C        0.13398600      -2.23481800       1.64164100
H       -0.41252800      -2.13479600       2.58079300
Cl       0.82664800       0.63641800       2.14681700
Cl      -0.66653200      -1.91564700      -1.32268500
O       -0.14071100       0.73125700      -0.72016600
O       -1.69887300      -0.30820800       1.09524100
C       -1.80624100       2.20526700      -0.04287200
C       -2.82019600       1.16846600      -0.30885100
C       -3.65213900      -1.05872600       0.04689600
C        0.48304600       2.92519600      -0.17782100
C        0.09432100       4.23506700       0.24742800
C       -2.20331500       3.49188600       0.36236800
C       -1.26625900       4.48895900       0.52538200
C       -3.93497700       1.47403800      -1.11044300
C       -4.90105800       0.52107000      -1.34907300
C       -4.78468200      -0.76458300      -0.77767200
H       -3.25483300       3.66577600       0.55467900
H       -1.56775000       5.47665300       0.85946900
H       -3.99650600       2.46385900      -1.54582500
H       -5.75383000       0.75075900      -1.98013400
C       -5.75090100      -1.78375900      -0.98146600
C       -3.50138200      -2.32179700       0.65178900
N       -0.49837600       1.95096400      -0.27386200
N       -2.71013800      -0.06005500       0.24340200
C        1.82182500       2.63542900      -0.50503100
C        1.09831000       5.23177600       0.36090700
C        2.40782700       4.93760900       0.04904100
C        2.76385600       3.63838800      -0.39132300
H        2.08936000       1.64239800      -0.83725800
H        0.80790200       6.22483600       0.69013700
H        3.17310000       5.70277400       0.13401300
H        3.79824800       3.42432300      -0.64241200
C       -5.59473100      -3.01802500      -0.38907600
C       -4.46800800      -3.28237000       0.42857800
H       -2.63264700      -2.52586300       1.26277000
H       -6.60990800      -1.56643800      -1.60876500
H       -6.33608900      -3.79512900      -0.54691000
H       -4.35677300      -4.26082600       0.88556200
