57
Properties=species:S:1:pos:R:3 pbc="F F F"
Si      -0.68786700      -1.45475500      -0.41322500
O        0.95335300      -0.87389000       0.66655200
C        2.13270000      -1.27773100       0.58457400
C        3.22449900      -0.64637400       1.28472300
H        2.36970700      -2.13206100      -0.06195000
C        3.03053400       0.49564400       2.09255800
C        4.51933900      -1.17305800       1.09781600
C        4.12319200       1.09473500       2.70391900
H        2.02827700       0.89184200       2.21900700
C        5.60959000      -0.56651400       1.71393000
H        4.65395200      -2.04589200       0.46427000
C        5.41002000       0.56464000       2.51494600
H        3.98595700       1.97399400       3.32602100
H        6.60915000      -0.96592500       1.57344300
H        6.26119100       1.03989700       2.99473300
C        1.47621900      -4.84718100      -1.04418700
C        0.90188600      -3.70695500      -1.34094400
H        2.52004200      -4.89478900      -0.73540700
H        0.92468600      -5.78515600      -1.09592400
C        0.32393700      -2.56735400      -1.60894000
H        0.34457200      -2.20615900      -2.63930100
Cl      -2.57483900      -1.70815200      -1.55996900
Cl      -1.08331800      -2.95157200       1.16343700
O       -1.40718300      -0.17278900       0.76114100
O       -0.26400700       0.05223300      -1.56208300
C       -1.81572100       1.88637900      -0.24157800
C       -0.36703800       2.07325700      -0.42195100
C        1.71238900       1.28838500      -1.32614100
C       -3.62466600       0.56732900       0.63117300
C       -4.54770500       1.59724500       0.25999000
C       -2.70939400       2.91048900      -0.59978300
C       -4.05995600       2.76330200      -0.36836900
C        0.25863200       3.24367100       0.04671800
C        1.61241500       3.42394600      -0.12745300
C        2.37119400       2.44870000      -0.81288300
H       -2.30804900       3.79790500      -1.07363600
H       -4.75636900       3.54296000      -0.66042000
H       -0.34735600       3.97172600       0.57234100
H        2.10578400       4.30838600       0.26270500
C        3.77041100       2.57005100      -1.01452900
C        2.42326600       0.30969600      -2.04708000
N       -2.28196700       0.75673100       0.33633400
N        0.35370800       1.13770000      -1.07837600
C       -4.06111000      -0.59632400       1.29342200
C       -5.92276400       1.40719700       0.55512900
C       -6.34339600       0.26294900       1.19729200
C       -5.40738300      -0.73405600       1.56909000
H       -3.34516300      -1.36115200       1.56410800
H       -6.62580100       2.18392200       0.27007900
H       -7.39541200       0.12167500       1.42479000
H       -5.75358400      -1.62858200       2.07771800
C        4.46399700       1.59699000      -1.70152300
C        3.78394100       0.47182000      -2.22553000
H        1.90213500      -0.55373700      -2.43770400
H        4.27680500       3.44345700      -0.61540800
H        5.53522100       1.69225900      -1.84735300
H        4.33939600      -0.28341100      -2.77284300
