57
Properties=species:S:1:pos:R:3 pbc="F F F"
Si      -0.10985800      -0.83090500       0.45519600
O        1.60057200      -1.23367700      -0.30017300
C        2.57492600      -1.78734500       0.27437700
C        3.87369200      -1.88108700      -0.33957100
H        2.42612300      -2.24816600       1.25595000
C        4.13609800      -1.34079800      -1.61852400
C        4.89686200      -2.53541300       0.37890500
C        5.41022400      -1.44977500      -2.15860900
H        3.33728500      -0.85220500      -2.16703300
C        6.17104100      -2.64034000      -0.17065400
H        4.67922800      -2.94931400       1.35995300
C        6.42640900      -2.09624500      -1.43553100
H        5.62206500      -1.03909600      -3.14118200
H        6.96269900      -3.14168200       0.37741700
H        7.42109300      -2.17779700      -1.86505800
C        3.26205400       0.55519800       2.24321700
C        1.96493400       0.42100800       2.08373400
H        3.83307800      -0.14397500       2.85254800
H        3.80044900       1.38391700       1.78538900
C        0.69451400       0.24101100       1.86385200
H       -0.01635500       0.70880800       2.54753000
Cl      -0.94938400      -2.03178400      -1.24126800
Cl      -0.18884300      -2.64767300       1.80877200
O       -1.78014800      -0.24668100       1.07565900
O       -0.15796400       0.58128300      -0.82095900
C       -2.74543400       1.31043600      -0.35408800
C       -1.62125600       2.23352000      -0.10563500
C        0.73566800       2.67485900      -0.24801000
C       -3.82113200      -0.79706200       0.06883200
C       -4.91914500      -0.39852900      -0.75957200
C       -3.82305900       1.71921800      -1.15872800
C       -4.89258600       0.87482100      -1.36799800
C       -1.86180700       3.55372400       0.31277500
C       -0.81081700       4.43148700       0.47641800
C        0.50918100       4.01673000       0.19487000
H       -3.77428700       2.69782200      -1.62028600
H       -5.71940200       1.18129300      -2.00125100
H       -2.88401000       3.84839500       0.51758500
H       -0.99003100       5.44625900       0.81764100
C        1.62965400       4.87878800       0.32335900
C        2.02943800       2.22394900      -0.57393600
N       -2.76781800       0.09001200       0.22834000
N       -0.35602400       1.82954600      -0.36034800
C       -3.81158300      -2.04976100       0.71255200
C       -5.99747100      -1.30560700      -0.92858100
C       -5.97952800      -2.53118700      -0.29906500
C       -4.88479200      -2.89798200       0.52303200
H       -2.96601900      -2.33259400       1.32549100
H       -6.82954500      -1.00856400      -1.55937800
H       -6.80640100      -3.22234600      -0.42986900
H       -4.88428600      -3.86789500       1.01085800
C        2.89377200       4.42767500       0.01115700
C        3.08863000       3.09941500      -0.44422900
H        2.17059600       1.20633100      -0.90875200
H        1.46446100       5.89542200       0.66632500
H        3.74763800       5.09081700       0.10877600
H        4.08978400       2.75945100      -0.69124900
