57
Properties=species:S:1:pos:R:3 pbc="F F F"
Si       0.57010900      -1.22738900       0.81451700
O       -1.00321800      -0.89877000      -0.28585300
C       -1.85969200      -1.73321600      -0.67865500
C       -3.11578000      -1.34186100      -1.26916000
H       -1.62986800      -2.80086600      -0.61874600
C       -3.47542800       0.01117700      -1.44769300
C       -3.99771400      -2.36702900      -1.67227700
C       -4.70369000       0.32738300      -2.01196400
H       -2.78751300       0.79069100      -1.14450300
C       -5.22740800      -2.04258300      -2.23655900
H       -3.70975200      -3.40524900      -1.52961200
C       -5.57994100      -0.69728200      -2.40376900
H       -4.98768100       1.36622400      -2.14972200
H       -5.91074900      -2.82771700      -2.54491300
H       -6.54057500      -0.44351000      -2.84348800
C       -3.05238600      -2.57970100       1.98872900
C       -1.78335300      -2.28209900       2.16239100
H       -3.36070800      -3.56985600       1.65556100
H       -3.83619300      -1.85125300       2.19257800
C       -0.52809800      -1.94927700       2.24434100
H       -0.00349000      -2.08358600       3.19103600
Cl       2.44782700      -1.28806200       2.02306500
Cl       0.94631700      -3.20615500      -0.19062100
O        1.36960000      -0.39618700      -0.67270500
O        0.30809400       0.54437800       1.50289400
C        2.04334500       1.78833600      -0.23064500
C        0.63355000       2.19160300      -0.10341100
C       -1.51417800       1.89695300       0.92662400
C        3.66241200       0.09094200      -0.75292500
C        4.70845000       1.06366200      -0.64861900
C        3.06019300       2.75524800      -0.13943300
C        4.37708200       2.39735700      -0.32783500
C        0.15200900       3.29838900      -0.82852200
C       -1.15709500       3.70196500      -0.69351300
C       -2.02138800       3.01069100       0.18505000
H        2.77787900       3.77349100       0.09835000
H        5.16654600       3.13691700      -0.23806900
H        0.83191000       3.80075700      -1.50555400
H       -1.53578400       4.54402300      -1.26398800
C       -3.38441900       3.36597000       0.35515800
C       -2.33731300       1.17931700       1.81466900
N        2.35923800       0.50352400      -0.51105400
N       -0.18603000       1.53351900       0.74493300
C        3.94523000      -1.24196200      -1.10701000
C        6.04380600       0.64622000      -0.88577500
C        6.31308700      -0.66201700      -1.22385100
C        5.25857500      -1.60132400      -1.33868800
H        3.14101700      -1.96119400      -1.18221600
H        6.83849300       1.38093100      -0.80003900
H        7.33526100      -0.97821800      -1.40723800
H        5.48455000      -2.62798700      -1.61021300
C       -4.18800800       2.65037300       1.21674000
C       -3.65925400       1.55812400       1.94647500
H       -1.92881600       0.34007900       2.36155900
H       -3.77506300       4.20711900      -0.20929400
H       -5.23165500       2.92215400       1.33975400
H       -4.30361800       1.00536300       2.62288500
