57
Properties=species:S:1:pos:R:3 pbc="F F F"
Si      -0.02421800      -0.69689000       0.84862600
O        1.83999500      -1.09530700       0.62100600
C        2.56078500      -0.92682300      -0.39845800
C        3.89185000      -1.46827200      -0.49956400
H        2.19441500      -0.31072300      -1.22412100
C        4.45015500      -2.27246800       0.51853300
C        4.63920100      -1.16604000      -1.65783400
C        5.73968300      -2.76574900       0.36899400
H        3.86301800      -2.49582000       1.40344800
C        5.93088600      -1.66298600      -1.79793200
H        4.19397600      -0.55044100      -2.43527600
C        6.47847200      -2.46234100      -0.78612200
H        6.17810300      -3.38617900       1.14471800
H        6.51097800      -1.43524300      -2.68689900
H        7.48652200      -2.85258100      -0.89600800
C        1.13628500      -2.72293500      -2.45040600
C        0.27851500      -2.35059600      -1.52545800
H        1.18452600      -2.22222100      -3.41669700
H        1.81231400      -3.56073800      -2.28378800
C       -0.49057000      -1.95729800      -0.55301100
H       -1.46979800      -2.42643600      -0.45739800
Cl       0.63883500       0.76426200       2.40778500
Cl      -0.20750300      -2.32109900       2.39364400
O        0.11247800       0.65351500      -0.52067000
O       -1.77199500      -0.09173700       1.17372600
C       -1.64392400       2.16114600      -0.40123600
C       -2.59664800       1.06778600      -0.66883700
C       -3.60246600      -1.00329100       0.01716500
C        0.61613100       2.92485800      -0.14682800
C        0.14300700       4.27214600      -0.03377200
C       -2.12201300       3.47925700      -0.29638300
C       -1.24378900       4.52288400      -0.10628100
C       -3.53415900       1.19701400      -1.70923500
C       -4.49167600       0.22649700      -1.90710800
C       -4.55654800      -0.88856300      -1.04416400
H       -3.19143200       3.64137700      -0.35370900
H       -1.60949900       5.54044100      -0.01321200
H       -3.47013100       2.06851600      -2.34911400
H       -5.20523000       0.31632700      -2.71998800
C       -5.53928100      -1.90293400      -1.17777700
C       -3.64456300      -2.08452400       0.91930500
N       -0.31719800       1.91172100      -0.32276500
N       -2.63433700      -0.01564400       0.13831000
C        1.99440600       2.64437300      -0.09229500
C        1.09407800       5.31145300       0.14036600
C        2.44029500       5.02352000       0.19081300
C        2.88666600       3.68458200       0.07266400
H        2.33782200       1.62496900      -0.16196600
H        0.73349700       6.33174300       0.22843400
H        3.16455400       5.82117600       0.32272100
H        3.94929500       3.46752700       0.11983500
C       -5.57103600      -2.96152600      -0.29564000
C       -4.62321500      -3.04627300       0.75360200
H       -2.91223900      -2.15125600       1.71385100
H       -6.26205000      -1.82146600      -1.98385300
H       -6.32582300      -3.73460500      -0.39972200
H       -4.66265200      -3.88338700       1.44378400
