63
Properties=species:S:1:pos:R:3 pbc="F F F"
Si       0.17971400      -1.03463900       0.55791100
O        1.92047300      -1.55129600      -0.02731500
C        2.89172400      -0.82892500      -0.36788700
C        4.21540500      -1.35526800      -0.57644600
H        2.73203900       0.23257000      -0.54279600
C        4.51522500      -2.72222300      -0.38504900
C        5.22380100      -0.45528000      -0.98362900
C        5.81068500      -3.17352900      -0.60130500
H        3.72891700      -3.40093900      -0.07068400
C        6.51824500      -0.91680700      -1.19797500
H        4.98172600       0.59601600      -1.11844900
C        6.80980300      -2.27373400      -1.00653600
H        6.05257500      -4.22215000      -0.45712600
H        7.29908300      -0.22981800      -1.50929200
H        7.82110000      -2.63476700      -1.17243500
C        3.37614100       0.94318300       2.12593900
C        2.11379200       0.58811300       2.03297400
H        3.75017000       1.82966900       1.61552200
H        4.08096500       0.36899900       2.72575200
C        0.88361700       0.18960200       1.88867200
H        0.13914100       0.55306100       2.59961100
Cl      -0.54345600      -2.29183600      -1.13748600
Cl       0.20708400      -2.77164500       1.98482600
O       -1.53547200      -0.57505500       1.15024500
O        0.07208000       0.41930800      -0.82442700
C       -2.58187400       0.80685100      -0.36859300
C       -1.57610400       1.82930200       0.01528800
C        0.64589000       2.64909400      -0.32458500
C       -3.48197600      -1.37054900       0.11130600
C       -4.53314100      -1.12375400      -0.82569900
C       -3.58460300       1.07050300      -1.32589000
C       -4.54125500       0.08888500      -1.54022600
C       -1.95438600       2.99948200       0.71232300
C       -0.98488800       3.96158000       0.93897400
C        0.30862300       3.83652300       0.39268200
H       -5.31957100       0.25780400      -2.27943000
H       -1.23220500       4.84589200       1.51896600
N       -2.53687800      -0.37910200       0.27178500
N       -0.29500100       1.63356900      -0.37298100
C       -3.41157300      -2.57438800       0.83981200
H       -2.59066900      -2.73840300       1.52622600
C       -5.51820200      -2.13188100      -1.00581200
H       -6.31847000      -1.95508200      -1.71791500
C       -4.39601200      -3.52072700       0.63889900
C       -5.45082900      -3.30327100      -0.28469400
C        1.87504300       2.53723100      -1.00013600
H        2.05111600       1.68731200      -1.64467500
C        1.29524900       4.85217100       0.50746500
H        1.05341800       5.74820700       1.07092800
C        2.79590400       3.56030500      -0.89064500
C        2.51973600       4.70930000      -0.10899700
H       -4.35710000      -4.45242300       1.19494500
H       -6.20672500      -4.07030500      -0.42245400
H        3.73689500       3.48776200      -1.42754200
H        3.26670000       5.49231000      -0.02411300
C       -3.62078000       2.35864600      -2.11003900
H       -4.44121800       2.99695700      -1.76142700
H       -2.68860600       2.92152600      -2.02908800
H       -3.80248800       2.13619200      -3.16610600
C       -3.36260600       3.16317200       1.22296800
H       -3.40586300       3.99557700       1.92979700
H       -4.05544700       3.37674500       0.40201600
H       -3.71054400       2.25485900       1.72563300
