63
Properties=species:S:1:pos:R:3 pbc="F F F"
Si       0.37179000      -1.47697300       0.76485200
O       -1.19759700      -0.99194800      -0.28563100
C       -2.12466600      -1.75588300      -0.66166600
C       -3.35908000      -1.26881200      -1.22467500
H       -1.97804000      -2.83830500      -0.60723700
C       -3.61439200       0.10726400      -1.40361900
C       -4.32925400      -2.22297300      -1.59826900
C       -4.82870300       0.51727100      -1.93679600
H       -2.85786800       0.83045300      -1.12599700
C       -5.54455100      -1.80476300      -2.13081900
H       -4.12030300      -3.27991800      -1.45634000
C       -5.79405100      -0.43635400      -2.29708800
H       -5.03209000       1.57490900      -2.07451800
H       -6.29610000      -2.53465000      -2.41529400
H       -6.74338600      -0.10939800      -2.71233300
C       -3.32669200      -2.55092000       2.02732200
C       -2.02778700      -2.38614000       2.14913000
H       -3.74612500      -3.48445700       1.65486800
H       -4.02549600      -1.76639700       2.31418200
C       -0.74249000      -2.18714800       2.18872000
H       -0.19821700      -2.43565000       3.10060100
Cl       2.26609000      -1.73630100       1.92657100
Cl       0.58401200      -3.43110300      -0.33744100
O        1.19697500      -0.63710100      -0.71036800
O        0.24421500       0.27377700       1.55870000
C        2.07158100       1.41602100      -0.05547600
C        0.67628100       1.91273300      -0.02056900
C       -1.48506500       1.75704600       1.01740800
C        3.52334800      -0.36664700      -0.76753600
C        4.65333300       0.46618300      -0.49615700
C        3.16827200       2.23971900       0.28057700
C        4.44325300       1.74124600       0.05909200
C        0.25772600       2.98924700      -0.84080100
C       -1.03784500       3.45148100      -0.68959600
C       -1.92360200       2.87418000       0.24304900
H        5.30546300       2.34889600       0.31996700
H       -1.39028500       4.26848900      -1.31257700
N        2.27287700       0.15036500      -0.49346500
N       -0.18496500       1.31972700       0.83286700
C        3.68094600      -1.66418800      -1.29353100
H        2.80958000      -2.27999400      -1.47176900
C        5.94906300      -0.04794000      -0.77117300
H        6.81017600       0.57899700      -0.56094500
C        4.95764800      -2.11810100      -1.55548700
C        6.09623300      -1.31347200      -1.29336300
C       -2.34862300       1.10707800       1.92024000
H       -1.99033400       0.25212000       2.47836700
C       -3.26015500       3.32281800       0.41222700
H       -3.60154600       4.16844600      -0.17694700
C       -3.64115400       1.57568400       2.05128600
C       -4.10042800       2.68504600       1.29849100
H        5.09115600      -3.11431300      -1.96600800
H        7.08712500      -1.70333900      -1.50491700
H       -4.31756800       1.08325600       2.74311000
H       -5.12314000       3.02781200       1.42049800
C        2.98784500       3.60010000       0.90765400
H        3.37473400       4.38322700       0.24646000
H        1.94389000       3.82063900       1.13860500
H        3.56126600       3.64244200       1.83976400
C        1.18342100       3.59138200      -1.86625500
H        0.59907600       4.11728600      -2.62551700
H        1.86461900       4.31392000      -1.40481700
H        1.79001500       2.82361100      -2.35570500
