63
Properties=species:S:1:pos:R:3 pbc="F F F"
Si       0.35716000      -0.68830800       0.74207000
O        2.20998500      -0.46092800       0.26116500
C        3.17504100      -1.24944600       0.43162800
C        4.45949600      -1.03939900      -0.18962300
H        3.05771800      -2.10636100       1.10194900
C        4.69719200       0.02747700      -1.08391500
C        5.49604200      -1.94320400       0.12511400
C        5.95552600       0.18028900      -1.65039200
H        3.89187400       0.71341500      -1.32440900
C        6.75541700      -1.78169300      -0.44510500
H        5.29928400      -2.76172600       0.81263800
C        6.98364100      -0.72190800      -1.33134400
H        6.14641600       0.99656700      -2.34063100
H        7.55617500      -2.47439600      -0.20519500
H        7.96586400      -0.59616800      -1.77849300
C        2.09555500      -3.53532300      -1.44366400
C        1.08027200      -2.76768400      -1.11801300
H        2.23247400      -4.51398600      -0.98487000
H        2.81625500      -3.22767000      -2.20010500
C        0.14560600      -1.95481500      -0.72024000
H       -0.80022000      -1.95654900      -1.26056000
Cl       0.75385800       0.89322400       2.28736400
Cl       0.72161600      -2.30082800       2.28096400
O        0.00345500       0.61842800      -0.61063100
O       -1.44922500      -0.57767400       1.25025600
C       -1.98816300       1.69427100      -0.10750200
C       -2.66507500       0.42052500      -0.45640100
C       -3.02860500      -1.88941500       0.11453900
C        0.07724700       2.92263400      -0.18696800
C       -0.62853700       4.10745700       0.18745300
C       -2.70551800       2.83294300       0.31945100
C       -2.00536500       4.02147700       0.46350200
C       -3.59403100       0.35201300      -1.52173000
C       -4.24299700      -0.85261500      -1.73834500
C       -4.00304500      -1.97974400      -0.92707000
H       -2.53011900       4.91165800       0.79895200
H       -4.94882000      -0.93691500      -2.55995900
N       -0.64773500       1.75421500      -0.28937200
N       -2.38299900      -0.67714400       0.27907300
C        1.46358900       2.94588700      -0.44099400
H        1.97098700       2.02797100      -0.70271000
C        0.10463700       5.32020200       0.29378600
H       -0.42556800       6.22270800       0.58256400
C        2.13397800       4.14686400      -0.33519500
C        1.45678600       5.33824800       0.03379900
C       -2.71993600      -2.99661600       0.92915400
H       -1.96668800      -2.90525100       1.70088900
C       -4.66511100      -3.22089900      -1.11985600
H       -5.40435300      -3.29668400      -1.91133100
C       -3.39206300      -4.18275000       0.70796000
C       -4.36556600      -4.29923100      -0.31593300
H        3.20126900       4.17877800      -0.53197500
H        2.01396700       6.26654300       0.11377500
H       -3.16619800      -5.04278500       1.33086500
H       -4.87376700      -5.24681800      -0.46541400
C       -4.17479500       2.77474000       0.65706100
H       -4.74821500       3.42640300      -0.01127700
H       -4.57978700       1.76325400       0.59283700
H       -4.32307000       3.13790400       1.67986500
C       -3.84091700       1.54182300      -2.41322900
H       -4.28952400       1.20969300      -3.35287000
H       -4.52929800       2.25192200      -1.94269900
H       -2.91032000       2.07330100      -2.63418200
