57
Properties=species:S:1:pos:R:3 pbc="F F F"
Si       0.00378700      -0.67445500       0.47854600
O        1.73717900      -0.97264000      -0.25924400
C        2.75130100      -1.32559200       0.39373900
C        3.99815600      -1.65458500      -0.24055600
H        2.69555600      -1.37061100       1.48609400
C        4.15382700      -1.62429300      -1.64525400
C        5.08236700      -2.01419900       0.58912200
C        5.38197400      -1.95214000      -2.20207200
H        3.30977800      -1.34765600      -2.26862800
C        6.31012500      -2.33996000       0.02128700
H        4.94602100      -2.03424400       1.66718800
C        6.45750400      -2.30872100      -1.37104800
H        5.51382200      -1.93444500      -3.27964900
H        7.14820700      -2.61787100       0.65279500
H        7.41556600      -2.56437200      -1.81540400
C        1.51225900      -4.29529300       1.32019800
C        0.76390600      -3.23923300       1.54246800
H        2.54148500      -4.34686800       1.67412300
H        1.12112800      -5.16216100       0.78836100
C        0.05541900      -2.15770200       1.70061100
H       -0.55601400      -2.03736200       2.59415900
Cl       0.88518200       0.67951200       2.13320600
Cl      -0.77399000      -1.85690400      -1.27606200
O       -0.02457100       0.78953500      -0.72776000
O       -1.70436300      -0.14341300       1.07385800
C       -1.65027800       2.30539200      -0.10282900
C       -2.67546500       1.30014400      -0.44232100
C       -3.67374000      -0.84299000      -0.03957600
C        0.64982600       2.98467700      -0.13470200
C        0.26050600       4.28097500       0.35406500
C       -2.05280000       3.57641400       0.33518200
C       -1.10710200       4.54075300       0.59159200
C       -3.67601900       1.62775900      -1.37080600
C       -4.65083800       0.70766000      -1.67663500
C       -4.68214500      -0.54376900      -1.02226800
H       -3.10986000       3.75825500       0.48615100
H       -1.40018000       5.51580900       0.96659400
H       -3.63450300       2.59800500      -1.85038200
H       -5.40977900       0.93338700      -2.41858600
C       -5.69436300      -1.49137000      -1.30962900
C       -3.77057400      -2.07974200       0.65253600
N       -0.34219300       2.02457600      -0.29667200
N       -2.67877000       0.10156000       0.18018400
C        2.02227800       2.77860800      -0.43723600
C        1.23994900       5.28003500       0.57405600
C        2.56541500       5.02549500       0.30189800
C        2.95177700       3.77232100      -0.21467000
F        2.46126200       1.62808400      -0.96698800
H        0.91622500       6.24478700       0.95083000
H        3.32022400       5.78692000       0.46845400
H        3.98836700       3.56273100      -0.45796800
C       -4.76826000      -2.98177200       0.34864700
C       -5.73004100      -2.69456100      -0.64075800
H       -6.43657500      -1.24076100      -2.06018300
F       -2.91523500      -2.40820500       1.63073500
H       -4.79393700      -3.91595300       0.90016100
H       -6.50205500      -3.42515400      -0.85858400
