57
Properties=species:S:1:pos:R:3 pbc="F F F"
Si      -0.16335700      -0.91143600       0.57816000
O        1.46847100      -1.69163000       0.01537500
C        2.52378100      -1.16510000      -0.42262700
C        3.74889200      -1.90873800      -0.56221500
H        2.50568400      -0.13046000      -0.75095300
C        3.84953700      -3.26183700      -0.16912000
C        4.86600800      -1.24130800      -1.10862800
C        5.05736100      -3.92938800      -0.32278500
H        2.98173000      -3.76118200       0.24961300
C        6.07166200      -1.91879700      -1.25975100
H        4.77421400      -0.20009200      -1.40564800
C        6.16590500      -3.25993800      -0.86624400
H        5.14644300      -4.96915500      -0.02295000
H        6.93507100      -1.41155100      -1.67913000
H        7.10769000      -3.78923500      -0.98248400
C        3.29420000       0.60813500       1.99836600
C        1.99058700       0.43991900       1.97833700
H        3.76508700       1.44397300       1.48358100
H        3.94062800      -0.07358000       2.54960400
C        0.71356600       0.20447500       1.89702500
H        0.04657000       0.64015900       2.64288500
Cl      -1.07078400      -1.97931400      -1.14363600
Cl      -0.39689500      -2.59637400       1.99817400
O       -1.81342600      -0.14546300       1.09255300
O        0.04440200       0.61768300      -0.81792800
C       -2.50088000       1.47744400      -0.37987900
C       -1.32647600       2.27521700       0.03368200
C        0.99906500       2.71247200      -0.23673100
C       -3.85084900      -0.47841900      -0.08890400
C       -4.75549900       0.01707400      -1.09375100
C       -3.39669700       2.00583100      -1.31844300
C       -4.49603400       1.26802500      -1.69479300
C       -1.50016300       3.47064700       0.74586500
C       -0.40129600       4.22490300       1.09173400
C        0.87379900       3.88180200       0.58760100
H       -3.18404200       2.97834000      -1.74555600
H       -5.18199300       1.64389300      -2.44701400
H       -2.50272400       3.74600000       1.05081100
H       -0.50579600       5.10689400       1.71494400
C        2.01122400       4.69203300       0.82891400
C        2.21906000       2.52389000      -0.92882100
N       -2.71662800       0.27521200       0.18897800
N       -0.09839300       1.86374700      -0.35459100
C       -4.18931700      -1.69081800       0.56770700
C       -5.90184700      -0.73670700      -1.44643400
C       -6.16899300      -1.93128500      -0.81590500
C       -5.31419400      -2.40046200       0.20160600
F       -3.45042000      -2.16896300       1.57403600
H       -6.56172300      -0.34393800      -2.21284200
H       -7.04535000      -2.51270400      -1.08293300
H       -5.52571400      -3.32489500       0.72905800
C        3.30851200       3.33232900      -0.69011200
C        3.21473600       4.40387400       0.22290400
H        1.90079900       5.55643400       1.47524600
F        2.31827500       1.59847400      -1.90663300
H        4.21989200       3.14854900      -1.24959000
H        4.08603300       5.02468500       0.40304700
