57
Properties=species:S:1:pos:R:3 pbc="F F F"
Si       0.55906800      -1.12494800       0.87551900
O       -1.01904000      -0.92467500      -0.25021600
C       -1.83041800      -1.83016200      -0.58175900
C       -3.10085900      -1.55403100      -1.20636100
H       -1.54378500      -2.87641800      -0.44620900
C       -3.53583700      -0.24148300      -1.48508700
C       -3.91438300      -2.65491300      -1.54944900
C       -4.76958100      -0.03741900      -2.08754100
H       -2.89890000       0.59566100      -1.23010800
C       -5.14991300      -2.44366500      -2.15360800
H       -3.56931100      -3.66216000      -1.33163100
C       -5.57738400      -1.13665400      -2.42006400
H       -5.11014200       0.97110500      -2.30137100
H       -5.78004200      -3.28767500      -2.41645600
H       -6.54255400      -0.97138900      -2.89080400
C       -2.98392900      -2.54915200       2.13031700
C       -1.73581000      -2.16835200       2.29706200
H       -3.23782900      -3.58258400       1.89780100
H       -3.80571800      -1.84260300       2.24491000
C       -0.51010000      -1.74425600       2.36787600
H        0.00050100      -1.72918400       3.33100800
Cl       2.44113800      -0.98031900       2.07245900
Cl       0.98343100      -3.16506300       0.08631500
O        1.35878000      -0.38047800      -0.68785800
O        0.20154100       0.72841100       1.41778800
C        1.94769000       1.82470800      -0.32753200
C        0.51510900       2.17255200      -0.34920200
C       -1.64523800       2.00654300       0.66563200
C        3.66100500       0.20164200      -0.73080700
C        4.65681500       1.19692500      -0.43276500
C        2.90219600       2.83083800      -0.11915800
C        4.23946100       2.50851000      -0.11642900
C        0.04477400       3.11091500      -1.28179700
C       -1.28529500       3.45550400      -1.28903200
C       -2.16291400       2.92157200      -0.31744900
H        2.55509300       3.83745100       0.07924500
H        4.98824200       3.26183000       0.10540700
H        0.74527300       3.51801700      -2.00099800
H       -1.67478000       4.14430700      -2.03134100
C       -3.53338300       3.27731700      -0.29818100
C       -2.52894100       1.55919500       1.68389700
N        2.32430000       0.55108800      -0.56981600
N       -0.30962100       1.62459400       0.56790000
C        4.10765900      -1.06129100      -1.19896400
C        6.03137700       0.86247400      -0.49741200
C        6.42145900      -0.40107400      -0.88285000
C        5.45421600      -1.35635600      -1.25412700
F        3.24784100      -1.98111600      -1.65007500
H        6.76080500       1.62763200      -0.25311200
H        7.47316700      -0.66311300      -0.93294900
H        5.74519200      -2.33793900      -1.61385100
C       -3.86169100       1.91584900       1.66792900
C       -4.37187600       2.76596400       0.66783200
H       -3.89962800       3.96126300      -1.05653400
F       -2.09957700       0.81257900       2.70768800
H       -4.49850300       1.53824900       2.46123000
H       -5.42433800       3.02910500       0.68070500
