57
Properties=species:S:1:pos:R:3 pbc="F F F"
Si      -0.53241800       0.80008600       1.10900900
O        0.99859600       0.98591700      -0.07307700
C        1.71321700       2.01323100      -0.22520200
C        2.97692100       1.99444700      -0.91947500
H        1.33899000       2.97747300       0.12838700
C        3.52422700       0.81163100      -1.45858100
C        3.66653700       3.21819900      -1.05516200
C        4.74586400       0.85546300      -2.11637900
H        2.98285400      -0.11972600      -1.35412000
C        4.89110600       3.25495000      -1.71481100
H        3.23613400       4.12332400      -0.63477700
C        5.42995400       2.07506600      -2.24329400
H        5.17287300      -0.05153700      -2.53313500
H        5.42682400       4.19342500      -1.81869800
H        6.38635100       2.10380800      -2.75801700
C        2.91307500       2.25295500       2.55894700
C        1.73532500       1.67751400       2.66641200
H        3.02671300       3.33414800       2.62826500
H        3.81733900       1.65892800       2.42905300
C        0.57617300       1.09155300       2.66781400
H        0.15432000       0.72839300       3.60481400
Cl      -2.34418700       0.23481200       2.29016800
Cl      -1.13102500       2.93394500       0.88635000
O       -1.33975200       0.42014100      -0.57773500
O       -0.04945600      -1.11410100       1.18277400
C       -1.87014200      -1.81992000      -0.66038800
C       -0.43139100      -2.09597200      -0.85687000
C        1.78566500      -2.11549900       0.05950900
C       -3.63268500      -0.19335100      -0.68793800
C       -4.57169600      -1.24285500      -0.39414900
C       -2.78626400      -2.87125700      -0.53604900
C       -4.11428300      -2.57718800      -0.31924900
C        0.00322200      -2.69933900      -2.04445900
C        1.34840700      -2.90470100      -2.23732300
C        2.26703900      -2.62152800      -1.20054900
H       -2.41462900      -3.88859500      -0.54514000
H       -4.82982800      -3.36688200      -0.11503400
H       -0.73059400      -2.93706600      -2.80499000
H        1.72133000      -3.29776300      -3.17746800
C        3.65224900      -2.84782100      -1.38781000
C        2.70442100      -2.01891400       1.14476500
N       -2.28367000      -0.53611300      -0.65237700
N        0.43385900      -1.77079900       0.12641100
C       -4.13373000       1.09504500      -1.01902100
C       -5.94288800      -0.93084700      -0.22833200
C       -6.37963700       0.36339000      -0.39840000
C       -5.48205500       1.35894700      -0.83394200
Cl      -3.19095500       2.31632100      -1.83338500
H       -6.63065900      -1.73411400       0.01547300
H       -7.42542800       0.61802900      -0.26117100
H       -5.85547000       2.34772100      -1.07829700
C        4.53619400      -2.60947200      -0.36082700
C        4.05505100      -2.22661400       0.90546800
Cl       2.23867000      -1.81988200       2.81344500
H        3.98977300      -3.21457800      -2.35161100
H        5.60167900      -2.76053200      -0.49927300
H        4.74703200      -2.13391600       1.73562500
