57
Properties=species:S:1:pos:R:3 pbc="F F F"
Si      -0.20936300      -0.82343500       0.47966400
O        1.43096500      -1.63084800      -0.12054600
C        2.59338700      -1.16230300      -0.04265800
C        3.76137900      -1.92365300      -0.39620500
H        2.73859600      -0.13871900       0.31014700
C        3.67239400      -3.25947200      -0.84781300
C        5.01929700      -1.29477300      -0.27414700
C        4.83330900      -3.94909900      -1.17048400
H        2.69764100      -3.72844500      -0.93402700
C        6.17674800      -1.99381700      -0.60021900
H        5.07213200      -0.26724800       0.07629600
C        6.08202500      -3.31806800      -1.04737400
H        4.77780100      -4.97642600      -1.51733400
H        7.14793600      -1.51755000      -0.50827000
H        6.98593400      -3.86484300      -1.30159100
C        2.76221200      -0.49076100       3.21933400
C        1.68178300      -0.10982400       2.58001100
H        3.75156400      -0.15033200       2.91648000
H        2.69958900      -1.15012700       4.08412200
C        0.61538400       0.21294400       1.90334300
H        0.07863100       1.11269100       2.20727500
Cl      -1.13006000      -1.79726100      -1.31050100
Cl      -0.54038800      -2.61638600       1.73868900
O       -1.84228800       0.01858900       0.98389200
O        0.11215200       0.64115600      -0.83592000
C       -2.34633800       1.65360500      -0.54603100
C       -1.15765600       2.38937300      -0.05189800
C        1.22655100       2.61443900      -0.13733900
C       -3.85844200      -0.18946800      -0.26306400
C       -4.55451600       0.24242700      -1.44859700
C       -3.08822800       2.16150500      -1.61738200
C       -4.14444700       1.42410500      -2.10427600
C       -1.28415500       3.57320900       0.68351600
C       -0.14598300       4.19747300       1.14810700
C        1.13125600       3.74689400       0.74155200
H       -2.77418000       3.09170900      -2.07535600
H       -4.68549800       1.75015200      -2.98666000
H       -2.27723000       3.93289400       0.92407200
H       -0.21532200       5.05854600       1.80465200
C        2.31354800       4.41162100       1.15130400
C        2.48061200       2.31615800      -0.73743400
N       -2.69123400       0.49799200       0.05843200
N        0.05917100       1.89188100      -0.36037300
C       -4.41342100      -1.25667300       0.49876800
C       -5.66190200      -0.50018400      -1.92623300
C       -6.09718000      -1.60850700      -1.23731700
C       -5.49304700      -1.95921100      -0.01406200
Cl      -3.92255500      -1.65756400       2.12344000
H       -6.15823900      -0.16433500      -2.83087400
H       -6.93720300      -2.19240200      -1.59899500
H       -5.90062400      -2.77775700       0.56944500
C        3.53726000       4.00496500       0.66908700
C        3.61240500       2.98825400      -0.30595900
Cl       2.65073300       1.27795300      -2.13801900
H        2.22567800       5.25248700       1.83166600
H        4.44876200       4.50190300       0.98443400
H        4.56610500       2.75405600      -0.76711300
