57
Properties=species:S:1:pos:R:3 pbc="F F F"
Si      -0.05262500      -0.65802100       0.44922700
O        1.67664100      -1.32233300      -0.14871400
C        2.56302500      -1.85715700       0.55995000
C        3.76648500      -2.41393800       0.00374900
H        2.42461400      -1.90216600       1.64601400
C        4.01543400      -2.41942100      -1.38809100
C        4.71289600      -2.95996500       0.89793500
C        5.19929100      -2.96100800      -1.86793600
H        3.27459000      -2.00426300      -2.06348600
C        5.89802000      -3.49970200       0.40713900
H        4.50574600      -2.95238600       1.96482500
C        6.13908900      -3.49897200      -0.97217500
H        5.40075800      -2.97190800      -2.93479400
H        6.63067500      -3.92010900       1.08890500
H        7.06349300      -3.92182800      -1.35597100
C       -2.25199000      -3.68774600      -1.17915000
C       -1.51967300      -2.60190300      -1.14772400
H       -3.33720800      -3.63789700      -1.11371800
H       -1.79460300      -4.67289200      -1.26057000
C       -0.79034900      -1.52002200      -1.11350200
H       -0.56018000      -1.03968900      -2.06695200
Cl       0.98453700       0.52011600       2.07868900
Cl      -0.34982600      -2.35951500       1.84539900
O        0.33176500       0.81631300      -0.79625500
O       -1.63215700       0.25360100       0.98614700
C       -1.10464700       2.53327000      -0.32428400
C       -2.20780600       1.64315500      -0.75299600
C       -3.63619900      -0.21211000      -0.21664100
C        1.26209500       2.91135500      -0.16328200
C        0.97928900       4.20004100       0.41746500
C       -1.39328300       3.82144700       0.13864800
C       -0.35986500       4.62732800       0.55586900
C       -2.95717100       1.94708300      -1.89470400
C       -3.96738400       1.09407000      -2.27895900
C       -4.33587800       0.00713900      -1.45659400
H       -2.42870700       4.13296600       0.20199600
H       -0.55745600       5.60472300       0.98373600
H       -2.68569800       2.81797400      -2.47875400
H       -4.50740300       1.25880700      -3.20573900
C       -5.40704500      -0.84383400      -1.82161900
C       -4.15651900      -1.17166900       0.69701500
N        0.16681900       2.08820400      -0.42626400
N       -2.50464600       0.56736900       0.00734800
C        2.62080500       2.58084100      -0.43807900
C        2.04115400       5.04317800       0.82594100
C        3.34573800       4.65038300       0.64079000
C        3.62622300       3.43542600      -0.01363400
Cl       3.13651300       1.20782100      -1.38956500
H        1.79628600       6.00055800       1.27432000
H        4.16781900       5.28342700       0.95842200
H        4.65598600       3.16523400      -0.22127100
C       -5.80873600      -1.84896600      -0.97222800
C       -5.20464800      -1.98490900       0.29310700
Cl      -3.66833500      -1.29641800       2.36550200
H       -5.90598300      -0.67014500      -2.76935600
H       -6.62255900      -2.51319600      -1.24396600
H       -5.58783700      -2.71901300       0.99368500
