57
Properties=species:S:1:pos:R:3 pbc="F F F"
Si      -0.50879800       0.18235400       1.48199900
O        1.17354900       0.75079900       0.66192500
C        1.37337400       1.64556700      -0.20150600
C        2.70367600       2.07075100      -0.55800800
H        0.52985600       2.06175600      -0.75843200
C        3.84153500       1.60908300       0.13883300
C        2.84917000       2.93511000      -1.66328200
C        5.10515100       2.00913500      -0.27415900
H        3.71385000       0.95165300       0.99230000
C        4.11984300       3.32456300      -2.07517500
H        1.96420800       3.28579100      -2.18809500
C        5.24517200       2.86237000      -1.38035500
H        5.98588800       1.66142000       0.25709700
H        4.23913100       3.98603800      -2.92771500
H        6.23737600       3.17013800      -1.69879500
C        0.50940100       4.08089100       1.36305200
C       -0.18930600       3.04789700       1.78425100
H        0.16959300       4.69005500       0.52586500
H        1.43394200       4.37760800       1.85709700
C       -0.82266400       1.97099300       2.14159800
H       -1.60062600       2.02800300       2.90349100
Cl       0.68694200      -0.40056800       3.26206200
Cl      -2.39678300      -0.71413700       2.21748400
O       -1.33943000       0.69417200      -0.20949500
O       -0.15280300      -1.52026400       0.66291900
C       -1.49677700      -1.11726800      -1.61284000
C       -0.02016200      -1.17822300      -1.60900200
C        1.94892100      -1.84394600      -0.40860100
C       -3.50407900      -0.00357800      -0.90462600
C       -4.26184200      -1.04521900      -1.55439500
C       -2.21777600      -2.07220400      -2.33809300
C       -3.59072800      -2.06247400      -2.26786200
C        0.72185900      -0.92993700      -2.77083800
C        2.09713400      -0.98058400      -2.70811600
C        2.74303500      -1.44346100      -1.53942900
H       -1.67278600      -2.82847700      -2.88984300
H       -4.17737400      -2.82966700      -2.76259400
H        0.19552500      -0.64054200      -3.67202700
H        2.70149200      -0.69120200      -3.56181900
C        4.15268900      -1.55650800      -1.48020800
C        2.58077500      -2.52991900       0.66415000
N       -2.11505700      -0.14773400      -0.90646000
N        0.59130600      -1.53569500      -0.46043400
C       -4.21956300       1.09057500      -0.33582500
C       -5.67659900      -1.03531100      -1.50223100
C       -6.33696300      -0.01567500      -0.85842900
C       -5.60536100       1.05055400      -0.30272300
Cl      -3.48594100       2.55958000       0.25400300
H       -6.21511800      -1.84191300      -1.98893600
H       -7.42052300      -0.00145100      -0.80317800
H       -6.13363100       1.88461700       0.14635800
C        4.75347400      -2.09489600      -0.36491100
C        3.96524300      -2.61365800       0.68164200
Cl       1.71143600      -3.44145400       1.86766800
H        4.73446900      -1.22632100      -2.33425400
H        5.83359600      -2.17678600      -0.30303700
H        4.44212500      -3.13324200       1.50583500
