63
Properties=species:S:1:pos:R:3 pbc="F F F"
Si       0.55204400      -0.98306000       0.98462400
O       -1.02799900      -0.95283600      -0.13920600
C       -1.76740600      -1.91488400      -0.47715400
C       -3.07480700      -1.72902000      -1.05600400
H       -1.39104100      -2.93669400      -0.37655200
C       -3.65565500      -0.45305300      -1.21625400
C       -3.77636300      -2.88221800      -1.46752600
C       -4.92043700      -0.33921800      -1.77694700
H       -3.11064000       0.42491200      -0.89435400
C       -5.04252800      -2.76015200      -2.03169500
H       -3.32021000      -3.85982600      -1.33556200
C       -5.61377300      -1.49035500      -2.18427200
H       -5.37372800       0.63971700      -1.89890300
H       -5.58614000      -3.64451700      -2.34937200
H       -6.60375200      -1.39480400      -2.62170000
C       -2.79130700      -2.75581500       2.28141800
C       -1.63836900      -2.14938900       2.45910500
H       -2.85585700      -3.83993000       2.19627800
H       -3.72199400      -2.19061700       2.24140100
C       -0.50380800      -1.51829200       2.52219000
H       -0.06690400      -1.27679600       3.49111700
Cl       2.42040700      -0.68050800       2.17331300
Cl       1.05546500      -3.11017600       0.43671000
O        1.31910900      -0.40534500      -0.65205700
O        0.11542500       0.87599900       1.38141700
C        1.96782800       1.78775900      -0.36423700
C        0.54315900       2.16224900      -0.47893700
C       -1.66654700       2.16090400       0.46789200
C        3.64073100       0.11449500      -0.79001200
C        4.64218600       1.05270300      -0.35860400
C        2.94150800       2.75253400      -0.08422500
C        4.26131300       2.36313400       0.00237700
C        0.13516700       2.97048900      -1.54921800
C       -1.19829000       3.27580300      -1.68712300
C       -2.12067900       2.88472000      -0.69119600
H        2.62471500       3.76884000       0.11581400
H        5.02480900       3.06930500       0.31336600
H        0.87835700       3.28920900      -2.27014700
H       -1.55352500       3.83607400      -2.54608200
C       -3.48981700       3.23066200      -0.80404800
C       -2.54107300       1.94927300       1.57404100
N        2.31589700       0.50950200      -0.61145500
N       -0.33491800       1.72946100       0.44732500
C        4.00885100      -1.10808300      -1.41647800
C        6.00278900       0.65739000      -0.36074400
C        6.34992700      -0.58688800      -0.83443800
C        5.36257500      -1.42639100      -1.39316400
C        3.06533100      -1.97290900      -2.21255900
H        6.75014000       1.36271300      -0.01102200
H        7.38794800      -0.90468900      -0.83942000
H        5.67199900      -2.35156700      -1.87151200
C       -4.36048300       2.91561400       0.21289400
C       -3.87098900       2.31720400       1.39112400
C       -2.11579400       1.46533800       2.93638700
H       -3.81955400       3.75765500      -1.69382100
H       -5.41355400       3.16770400       0.13653300
H       -4.55415300       2.16309300       2.22160700
H        3.65013400      -2.63250400      -2.86118100
H        2.42521300      -2.57941300      -1.56989500
H        2.40970400      -1.35576700      -2.83516400
H       -1.19284400       1.95493200       3.25865400
H       -2.90915800       1.68960800       3.65578200
H       -1.92698100       0.39089600       2.94111400
