63
Properties=species:S:1:pos:R:3 pbc="F F F"
Si       0.00343100      -0.63061500       0.57206600
O        1.82583000      -0.84282100       0.05503700
C        2.40550900      -1.82759500      -0.47708100
C        3.84148200      -1.90719600      -0.55294300
H        1.81130600      -2.61641700      -0.94524400
C        4.67449800      -0.92347600       0.02569800
C        4.40669600      -3.00108400      -1.24237800
C        6.05315800      -1.04073700      -0.09071500
H        4.22619500      -0.09107400       0.55852700
C        5.78913200      -3.10906000      -1.35562600
H        3.75341100      -3.75283500      -1.67756500
C        6.60973200      -2.13045600      -0.78016600
H        6.70242200      -0.29170400       0.35245700
H        6.22996500      -3.94818500      -1.88485800
H        7.68946000      -2.21596100      -0.86626100
C        1.89242800      -3.98171400       1.67344900
C        0.98767100      -3.03742000       1.81489700
H        1.66001000      -4.91912900       1.16892700
H        2.89594100      -3.86569000       2.08140000
C        0.14390800      -2.05066800       1.87452400
H       -0.51118400      -1.94938100       2.73860700
Cl       0.74473600       0.82616100       2.18257300
Cl      -0.71486700      -1.94263100      -1.13562300
O       -0.04378600       0.74308900      -0.72220200
O       -1.75933700      -0.22403400       1.09622500
C       -1.60555000       2.26779200       0.01374900
C       -2.65980200       1.30481300      -0.36993100
C       -3.74464300      -0.83147700      -0.08297600
C        0.68623100       2.96180100      -0.25098200
C        0.36707600       4.16486100       0.47162800
C       -1.94941200       3.48373400       0.61639600
C       -0.95559000       4.39090200       0.90869800
C       -3.60847600       1.71510100      -1.31498800
C       -4.58876100       0.83548200      -1.70712300
C       -4.68080100      -0.43813600      -1.10881600
H       -2.98519300       3.65802400       0.88070200
H       -1.18296400       5.30339700       1.45067600
H       -3.52092900       2.70719200      -1.74083000
H       -5.30897100       1.11243800      -2.47049800
C       -5.71650600      -1.32206400      -1.49808800
C       -3.92071200      -2.07156400       0.60329900
N       -0.32548000       2.00533700      -0.32220100
N       -2.71652600       0.07876000       0.19301800
C        1.95579800       2.80754000      -0.87797600
C        1.38036600       5.12718600       0.70188100
C        2.64061100       4.92656300       0.18937300
C        2.89694900       3.79783900      -0.61679000
C        2.30896300       1.72795900      -1.87183400
H        1.12885100       6.02086100       1.26450600
H        3.42811700       5.65436300       0.35858100
H        3.86965100       3.70599500      -1.09215400
C       -5.84674000      -2.53930800      -0.87533700
C       -4.96573000      -2.88198600       0.16894700
C       -3.09132400      -2.56781800       1.75832700
H       -6.39904500      -1.00423200      -2.27995800
H       -6.63518900      -3.22841200      -1.16166400
H       -5.10978400      -3.82969700       0.68002600
H        3.17751700       2.05266000      -2.45279100
H        2.55644700       0.79158100      -1.37267500
H        1.48022400       1.52497200      -2.55444100
H       -2.09745000      -2.86591900       1.41590000
H       -2.95895700      -1.80280500       2.52622500
H       -3.58024400      -3.43890500       2.20443900
