63
Properties=species:S:1:pos:R:3 pbc="F F F"
Si      -0.04429500      -0.70074800       0.48845500
O        1.72874000      -0.99914900      -0.22392200
C        2.73592800      -1.34259500       0.44514000
C        3.99323700      -1.66597300      -0.17093800
H        2.66530800      -1.37896500       1.53684900
C        4.15522500      -1.68520100      -1.57544400
C        5.08272100      -1.96567400       0.67578900
C        5.39528500      -1.99628800      -2.11492600
H        3.30574800      -1.46533000      -2.21371600
C        6.32292800      -2.27313600       0.12523400
H        4.94153600      -1.95001800       1.75327500
C        6.47695800      -2.28763900      -1.26670300
H        5.53105400      -2.01788400      -3.19189400
H        7.16566600      -2.50217700       0.76996500
H        7.44462700      -2.53009600      -1.69732800
C        1.45408300      -4.33108100       1.35669100
C        0.73669600      -3.25541600       1.58240500
H        2.50447400      -4.38177500       1.64221000
H        1.01768100      -5.21373100       0.89017200
C        0.05903800      -2.15460000       1.74847400
H       -0.47665000      -1.99197700       2.68334800
Cl       0.83347800       0.67280900       2.14288500
Cl      -0.78754200      -1.91478300      -1.24301100
O       -0.06536400       0.73744400      -0.74108200
O       -1.76439000      -0.23470400       1.07744100
C       -1.54634700       2.28979400       0.09671300
C       -2.64234200       1.38335700      -0.30554700
C       -3.78693500      -0.72966400      -0.09101400
C        0.76639100       2.89779000      -0.18628300
C        0.51737000       4.07419900       0.60347500
C       -1.82537600       3.49020300       0.76070600
C       -0.78611200       4.33726700       1.07684700
C       -3.58840200       1.85922900      -1.22186900
C       -4.59161000       1.02040600      -1.64515300
C       -4.71346200      -0.27416400      -1.09918100
H       -2.84757200       3.69678900       1.05302700
H       -0.96239400       5.23119900       1.66695200
H       -3.47685500       2.86559400      -1.60697500
H       -5.30695500       1.34607500      -2.39374300
C       -5.77043600      -1.11809100      -1.51896000
C       -4.00002500      -1.98198900       0.56106100
N       -0.28589900       1.98951700      -0.27869600
N       -2.72914000       0.13774300       0.20721700
C        2.01120000       2.72100900      -0.85563600
C        1.58143800       4.97226100       0.86331500
C        2.82106600       4.73759000       0.31591800
C        3.00601600       3.64651200      -0.55954200
C        2.27046700       1.70072700      -1.93682500
H        1.38561900       5.84564100       1.47736200
H        3.64690600       5.41519800       0.50920800
H        3.96237300       3.53783500      -1.06368200
C       -5.93045700      -2.35297000      -0.93886800
C       -5.06349200      -2.75109800       0.09774600
C       -3.19995800      -2.52350600       1.71689300
H       -6.44544600      -0.75646900      -2.28820500
H       -6.73468500      -3.01248200      -1.24996500
H       -5.23703600      -3.70853400       0.58057500
H        3.17317500       1.98584300      -2.48543500
H        2.40565600       0.69773900      -1.53435300
H        1.43131500       1.65224800      -2.63695600
H       -2.21399900      -2.85630300       1.38415100
H       -3.04583200      -1.77214500       2.49424500
H       -3.72769300      -3.37933800       2.14843000
