63
Properties=species:S:1:pos:R:3 pbc="F F F"
Si       0.08843800      -0.78224700      -0.26341000
O       -1.64144800      -1.37520900       0.21985500
C       -2.61739200      -1.67957000      -0.51600300
C       -3.76298500      -2.38598300      -0.00587400
H       -2.62222400      -1.36149200      -1.56171000
C       -3.83704100      -2.81993400       1.33627100
C       -4.83427800      -2.62814400      -0.89190400
C       -4.97154800      -3.48861000       1.77628400
H       -3.00575200      -2.62395300       2.00556800
C       -5.96793400      -3.29727300      -0.44169500
H       -4.76087300      -2.29156200      -1.92282600
C       -6.03472400      -3.72687200       0.88990500
H       -5.03884000      -3.82738000       2.80570600
H       -6.79534100      -3.48737200      -1.11837500
H       -6.91900700      -4.25120000       1.24175700
C       -1.29781200      -4.00174600      -2.13463100
C       -0.33920500      -3.28375500      -1.59189800
H       -1.50549600      -3.95479600      -3.20318700
H       -1.89488400      -4.68770100      -1.53489900
C        0.52467100      -2.50460300      -1.01166900
H        1.54511800      -2.84122100      -0.85382500
Cl      -0.63419500       0.13538400      -2.21051100
Cl       0.79823000      -1.45439500       1.78070100
O       -0.40963300       0.82532500       0.69556800
O        1.79471100      -0.02566700      -0.72723700
C        1.07920400       2.45029000       0.02771600
C        2.12824800       1.70324200       0.76122400
C        3.67479100      -0.12229600       0.70932200
C       -1.26305300       2.78191200      -0.34190200
C       -0.93813700       3.80945900      -1.28772000
C        1.40826800       3.56092500      -0.75566200
C        0.41166700       4.17803900      -1.48148100
C        2.68736500       2.20204200       1.94204300
C        3.62198800       1.43699100       2.60802600
C        4.13956100       0.26757500       2.00718800
H        2.44645100       3.86126500      -0.82802400
H        0.64777800       4.96756000      -2.18753900
H        2.32045000       3.14026900       2.33998000
H        3.99034300       1.73728700       3.58363900
C        5.13351100      -0.51819100       2.64498500
C        4.38248300      -1.11341600      -0.02661500
N       -0.19635200       2.02997100       0.13744300
N        2.54561900       0.53385600       0.23927200
C       -2.61645000       2.60461300       0.06133100
C       -1.98505100       4.45641600      -1.99302900
C       -3.59917400       3.26118900      -0.66575100
C       -3.29540400       4.13590800      -1.73028000
H       -1.72332800       5.21230700      -2.72661200
C       -3.04157800       1.92854700       1.36477700
H       -4.63602300       3.14341500      -0.37274400
H       -4.10343800       4.60838200      -2.27826400
C        5.67684700      -1.60241500       1.99730600
C        5.34467000      -1.85072600       0.64786900
C        4.33154400      -1.23254800      -1.55128500
H        5.45889000      -0.23305200       3.64046700
H        6.42205200      -2.22242500       2.48381000
H        5.90390800      -2.60546800       0.10700900
F        4.14415100      -0.01884300      -2.13256100
F        3.38475500      -2.07319700      -2.02423300
F        5.52083900      -1.70041200      -2.02629800
F       -4.20302100       2.47784400       1.82464300
F       -2.12500400       2.11451100       2.34740000
F       -3.27824300       0.60265200       1.25005100
