63
Properties=species:S:1:pos:R:3 pbc="F F F"
Si       0.23580000       0.98646400       0.31984900
O       -1.38628600       1.81542000      -0.22166200
C       -2.56760200       1.40559100      -0.08489200
C       -3.70523600       2.25504500      -0.31909700
H       -2.74766400       0.36654500       0.18788600
C       -3.55361000       3.61409200      -0.67428600
C       -4.99385200       1.69488300      -0.18589600
C       -4.68174000       4.39399200      -0.89139800
H       -2.55656000       4.03119400      -0.77115500
C       -6.11780500       2.48318500      -0.40821800
H       -5.10096800       0.65064200       0.09316100
C       -5.96084500       3.83021700      -0.75992300
H       -4.57593500       5.43979200      -1.16322200
H       -7.11160600       2.05782700      -0.30833800
H       -6.83904200       4.44635600      -0.93226200
C       -2.85901600       0.74919300       2.97190800
C       -1.66129400       0.49460100       2.49603500
H       -3.69720100       0.08077300       2.77992300
H       -3.04588000       1.63109300       3.58318600
C       -0.48533500       0.27891700       1.98054600
H        0.22412900      -0.30710100       2.56659200
Cl       1.03571600       1.51431100      -1.67804100
Cl       0.81607400       2.90858600       1.22950700
O        1.90610900       0.12574300       0.83017000
O       -0.35321600      -0.69692000      -0.69120600
C        2.00864300      -1.85978800      -0.33693500
C        0.82668100      -2.32059800       0.43282800
C       -1.56079400      -2.37493700       0.45037400
C        3.74702400      -0.23931900      -0.61946000
C        4.13474000      -0.90942400      -1.82734200
C        2.48985200      -2.62870000      -1.40173200
C        3.48991700      -2.11081600      -2.19613800
C        0.89785000      -3.25699900       1.46865500
C       -0.26484000      -3.61125500       2.12570900
C       -1.51870400      -3.18805100       1.62522100
H        2.00994700      -3.57494400      -1.62060300
H        3.80712000      -2.62764000      -3.09601600
H        1.86860800      -3.63150300       1.77064200
H       -0.23319100      -4.24489200       3.00587600
C       -2.74523500      -3.56885800       2.22990100
C       -2.78441600      -2.19067200      -0.25168000
N        2.56143400      -0.66982200      -0.02929900
N       -0.36118100      -1.81736600       0.04051000
C        4.58120700       0.78570700      -0.09336100
C        5.18363400      -0.36644300      -2.61315300
C        5.59178700       1.27960000      -0.90554400
C        5.85577600       0.75436400      -2.18798900
H        5.44482300      -0.86413600      -3.54178500
C        4.58391800       1.22217100       1.37158100
H        6.23765200       2.06064000      -0.52129900
H        6.64363300       1.19214900      -2.79139900
C       -3.94136700      -3.21500900       1.64889900
C       -3.95180200      -2.59454400       0.37978100
C       -2.83735300      -1.86664100      -1.74945900
H       -2.71370900      -4.15616700       3.14225700
H       -4.88272500      -3.48817100       2.11325000
H       -4.89708100      -2.48856800      -0.14028100
F       -1.77952200      -2.41992000      -2.39698300
F       -2.86292400      -0.54857100      -2.06474600
F       -3.95723600      -2.40337800      -2.30508400
F        3.78816000       2.27367400       1.63504000
F        5.84575100       1.59203600       1.74676400
F        4.23780500       0.20012600       2.19881800
