63
Properties=species:S:1:pos:R:3 pbc="F F F"
Si      -0.44229100       0.23966500       1.40456400
O        0.87549000       1.14958900       0.32266600
C        1.33873600       2.30995000       0.48771300
C        2.53923300       2.76568500      -0.16674800
H        0.78751000       3.01855400       1.11190600
C        3.33256700       1.90961700      -0.95973000
C        2.91085600       4.11552500       0.00739800
C        4.47945400       2.40164500      -1.56669100
H        3.03951700       0.87431900      -1.07994300
C        4.05947100       4.60358100      -0.60867600
H        2.29543800       4.76378200       0.62560200
C        4.84237700       3.74733600      -1.39294400
H        5.09700700       1.74772300      -2.17466800
H        4.34874700       5.64186800      -0.47928800
H        5.74113100       4.12697600      -1.87105200
C        2.65097500       1.90606700       3.23987100
C        1.73953900       0.96776600       3.10447600
H        2.45458100       2.80834200       3.81816000
H        3.64265300       1.79369600       2.80306900
C        0.81333500       0.09058100       2.86269100
H        0.69239500      -0.78240300       3.50170300
Cl      -1.95977200      -1.11364600       2.32580700
Cl      -1.40001400       2.09538100       2.13698400
O       -1.38491300       0.40950300      -0.25700400
O        0.41358400      -1.44258800       0.66449300
C       -1.64828900      -1.72960500      -1.07600900
C       -0.24356700      -1.64867100      -1.53524800
C        2.08557300      -1.66196100      -0.99545800
C       -3.58243700      -0.46022400      -0.46791100
C       -4.32493400      -1.68118300      -0.36490600
C       -2.39733200      -2.90582000      -1.16964600
C       -3.69977200      -2.90029400      -0.71196800
C        0.02760500      -1.59112200      -2.90843800
C        1.32391200      -1.39274200      -3.32376700
C        2.37570100      -1.42280700      -2.37979600
H       -1.91502400      -3.80633800      -1.52923200
H       -4.26768600      -3.82296000      -0.65015200
H       -0.80137900      -1.63167800      -3.60466000
H        1.55736000      -1.23621200      -4.37158800
C        3.72299100      -1.24558400      -2.78659500
C        3.15490900      -1.96904000      -0.10515100
N       -2.20987200      -0.59241800      -0.62288100
N        0.74232100      -1.58776700      -0.61675000
C       -4.26401700       0.78565100      -0.44669500
C       -5.68196300      -1.62320100       0.04387200
C       -5.59190500       0.78422000      -0.04423900
C       -6.28199700      -0.40633500       0.27105400
H       -6.23136500      -2.55304800       0.15191300
C       -3.71892300       2.05890000      -1.09891500
H       -6.13801900       1.72077600      -0.03307300
H       -7.31277700      -0.35102200       0.60401400
C        4.74134100      -1.34949300      -1.86990400
C        4.45259600      -1.76745900      -0.55449800
C        2.98761600      -2.71262600       1.22222000
H        3.92144500      -1.03478400      -3.83275100
H        5.77309100      -1.19035900      -2.16426000
H        5.27875000      -1.99196200       0.10970500
F        4.10038600      -3.46194900       1.48285700
F        1.95353400      -3.58937500       1.17731300
F        2.82245600      -1.90490800       2.28813700
F       -3.09013500       2.90554300      -0.26486000
F       -4.74736900       2.76466000      -1.65719600
F       -2.86968400       1.76592100      -2.12210800
