63
Properties=species:S:1:pos:R:3 pbc="F F F"
Si      -0.33564600      -0.08809100       1.48524700
O        1.11779500       0.94558200       0.67263300
C        1.04914700       2.01296500       0.00573100
C        2.21928600       2.80433500      -0.28368100
H        0.09628800       2.31593600      -0.43694900
C        3.48100800       2.49344500       0.26785200
C        2.07877500       3.89198700      -1.17023400
C        4.58461700       3.26459400      -0.07281100
H        3.57043600       1.66020000       0.95666500
C        3.19075100       4.65543900      -1.51106300
H        1.09907300       4.12273600      -1.58071900
C        4.44110700       4.34090200      -0.96277000
H        5.55890600       3.03613200       0.34856800
H        3.09034600       5.49298500      -2.19445000
H        5.30900600       4.93947800      -1.22537100
C       -0.12997200       3.90941800       1.99649600
C       -0.56426300       2.69529700       2.26086900
H       -0.66048800       4.55872400       1.30054900
H        0.75606100       4.31294900       2.48509400
C       -0.93716600       1.46649600       2.45317600
H       -1.64361200       1.23540600       3.25055100
Cl       1.10241500      -0.64882900       3.07163500
Cl      -1.94668000      -1.46111200       2.11671200
O       -1.41830200       0.52808700      -0.05017200
O        0.28450000      -1.55208100       0.37508400
C       -1.19945600      -0.99842300      -1.76648400
C        0.25554300      -0.72532700      -1.77527100
C        2.34936100      -1.30302700      -0.76633200
C       -3.38009800      -0.47617100      -0.92106600
C       -3.88325800      -1.62204500      -1.62840200
C       -1.70350700      -2.00910800      -2.59121000
C       -3.02629500      -2.36718400      -2.46661100
C        0.89692000      -0.04717100      -2.81775000
C        2.25822500       0.16885500      -2.72966400
C        3.01447100      -0.46084000      -1.71495000
H       -1.02222600      -2.53380500      -3.24973700
H       -3.42716600      -3.21361900      -3.01451500
H        0.30017400       0.35063400      -3.62962800
H        2.76588500       0.79812900      -3.45323400
C        4.42199100      -0.30814200      -1.62310100
C        3.10259800      -2.17081400       0.06802700
N       -1.99387900      -0.31162600      -0.91960100
N        0.96408400      -1.22038100      -0.74143200
C       -4.30717400       0.40466700      -0.29035500
C       -5.24836900      -1.98377000      -1.49830700
C       -5.62812800      -0.00911500      -0.18434900
C       -6.09537700      -1.21927900      -0.73501800
H       -5.59822100      -2.86843500      -2.02086100
C       -4.01191700       1.83789000       0.15030300
H       -6.34251300       0.64290000       0.30383700
H       -7.13576300      -1.49754300      -0.60623100
C        5.12957600      -1.00968900      -0.67498500
C        4.47567400      -1.98079000       0.11481200
C        2.52951300      -3.45304400       0.68260000
H        4.91903600       0.35548200      -2.32317200
H        6.20326600      -0.88641200      -0.58315400
H        5.07566500      -2.63844800       0.73322000
F        1.54494500      -3.96702400      -0.10493700
F        2.04679200      -3.32848300       1.92876100
F        3.50419300      -4.40856900       0.74049300
F       -3.58057200       1.92239600       1.42462000
F       -5.14552200       2.59912200       0.08308800
F       -3.11511200       2.45545300      -0.66109900
