63
Properties=species:S:1:pos:R:3 pbc="F F F"
Si       0.13949900      -0.67650600      -0.67436900
O       -1.68142300      -1.33950400      -0.59127300
C       -1.98758000      -2.50020200      -0.22421400
C       -3.33821000      -2.98988300      -0.22714800
H       -1.19703200      -3.17720600       0.11894300
C       -4.41836500      -2.21745300      -0.71281400
C       -3.56213200      -4.29075400       0.27565300
C       -5.70108000      -2.74534700      -0.68453400
H       -4.22785100      -1.22367200      -1.10222300
C       -4.85291600      -4.80890200       0.30478200
H       -2.72080300      -4.87520700       0.63882600
C       -5.91839500      -4.03642300      -0.17410600
H       -6.53842400      -2.16305800      -1.05683900
H       -5.03337900      -5.80626200       0.69341600
H       -6.92642000      -4.44159900      -0.15398700
C       -0.33155000      -1.61969200       3.25151100
C        0.23131800      -1.64881400       2.06850100
H       -1.14194200      -2.30095900       3.50809800
H       -0.00703500      -0.91223100       4.01345200
C        0.75163000      -1.66479600       0.87188500
H        1.60176900      -2.32221300       0.68239900
Cl      -0.56279600       0.56017800      -2.38720500
Cl       0.70563200      -2.35592400      -2.04096400
O       -0.53340600       0.69164800       0.58173400
O        1.82150300       0.26409500      -0.87252200
C        0.90561700       2.46236200       0.34680800
C        1.92156900       1.60272200       1.00195900
C        3.51724000      -0.16099200       0.73794200
C       -1.42523100       2.77721600      -0.09651200
C       -1.09812500       3.97856500      -0.80623700
C        1.22737900       3.71102000      -0.19189800
C        0.24260100       4.42327400      -0.84405900
C        2.30975500       1.81552400       2.32904900
C        3.17040300       0.91510200       2.92005700
C        3.79172100      -0.08800800       2.14258300
H        2.25378600       4.05443100      -0.14567800
H        0.48003800       5.34183000      -1.37055900
H        1.86341300       2.63474300       2.87941300
H        3.39795900       0.97945500       3.97910500
C        4.70375600      -1.01217400       2.71368600
C        4.33631300      -0.96673500      -0.09954100
N       -0.35437800       1.98476000       0.29770400
N        2.44162200       0.59089200       0.28184100
C       -2.78694900       2.47006500       0.18037600
C       -2.13750800       4.70838900      -1.43879000
C       -3.76092900       3.21746900      -0.46484200
C       -3.44257400       4.29355100      -1.32127100
H       -1.87596100       5.59950200      -2.00070800
C       -3.23631600       1.53891900       1.30638000
H       -4.80506700       3.00676800      -0.26509000
H       -4.24246900       4.83210500      -1.81796400
C        5.34921700      -1.92717800       1.91570600
C        5.20837100      -1.85502800       0.51307900
C        4.48548300      -0.74457800      -1.60660700
H        4.88520800      -0.96707100       3.78294500
H        6.03135000      -2.65296300       2.34507500
H        5.84605700      -2.47546000      -0.10606500
F        4.34065300       0.56968500      -1.92515200
F        3.63819900      -1.46079500      -2.36592200
F        5.74555600      -1.09074000      -2.00503600
F       -4.46009000       1.92094300       1.77600300
F       -2.39139700       1.60378600       2.36932900
F       -3.36354200       0.24434800       0.94775900
