63
Properties=species:S:1:pos:R:3 pbc="F F F"
Si      -0.55145800      -0.08073800       1.48624300
O        0.79348500       1.14080900       0.68833400
C        2.01945900       1.17828200       0.94976800
C        2.93573600       2.04792900       0.26241800
H        2.42270100       0.51426900       1.72332600
C        2.52508900       2.87914400      -0.80419700
C        4.28762100       2.02499100       0.66719400
C        3.46208700       3.67430800      -1.44844800
H        1.48309700       2.88038300      -1.10744200
C        5.21843300       2.83142600       0.02016800
H        4.58939600       1.37458700       1.48390100
C        4.80491100       3.65259300      -1.03545700
H        3.15935500       4.31530600      -2.27073600
H        6.25887900       2.82152100       0.32906600
H        5.53130800       4.28047100      -1.54386400
C        1.72854000       0.65828000       4.72394900
C        1.15047700      -0.08253600       3.80951300
H        2.74527900       1.02749100       4.59083000
H        1.21317900       0.92448800       5.64596800
C        0.57104500      -0.78065400       2.87312400
H        0.67224000      -1.86412700       2.87383500
Cl      -2.15000200      -1.56792900       1.92187200
Cl      -1.35318300       1.62177700       2.57502000
O       -1.46097000       0.52889200      -0.10950400
O        0.40222900      -1.48753400       0.28605400
C       -1.54313900      -1.26294600      -1.55862700
C       -0.13330600      -0.96095800      -1.88814800
C        2.16701600      -1.05977900      -1.24489800
C       -3.58523800      -0.36609700      -0.69559700
C       -4.23479600      -1.60116700      -1.02607700
C       -2.19385900      -2.39610800      -2.05318300
C       -3.50934100      -2.61079500      -1.69641900
C        0.18766400      -0.40708200      -3.13333000
C        1.48360200      -0.01050500      -3.36874600
C        2.49417400      -0.32269300      -2.43152000
H       -1.63001300      -3.10826400      -2.64309200
H       -4.01036300      -3.53782800      -1.95585300
H       -0.60749600      -0.23532100      -3.84898100
H        1.74873100       0.52467200      -4.27463400
C        3.83749000       0.06794300      -2.65984900
C        3.22189300      -1.59719000      -0.45217800
N       -2.19945400      -0.35676400      -0.80793200
N        0.80534400      -1.18867200      -0.94785300
C       -4.36755800       0.75487100      -0.31119300
C       -5.60485700      -1.76720000      -0.69940600
C       -5.70276400       0.53498000      -0.00213000
C       -6.30815800      -0.73311800      -0.12738600
H       -6.07883000      -2.71666300      -0.92740300
C       -3.91524000       2.20826400      -0.45735500
H       -6.31893000       1.37925700       0.28580400
H       -7.35012500      -0.85569900       0.14779900
C        4.82674400      -0.30565000      -1.78290600
C        4.51900600      -1.18329600      -0.72497700
C        3.06505900      -2.72801200       0.56319900
H        4.05848000       0.65728000      -3.54372700
H        5.85295200       0.01010500      -1.93374500
H        5.33223700      -1.58041700      -0.12889000
F        2.86228400      -2.28033300       1.82487800
F        4.20137100      -3.48265500       0.60901200
F        2.06633300      -3.58072400       0.23853200
F       -3.44535900       2.76309300       0.67419900
F       -4.97381500       2.98021500      -0.85144700
F       -2.97342000       2.34937900      -1.42730000
