63
Properties=species:S:1:pos:R:3 pbc="F F F"
Si       0.13695600      -0.67753000      -0.67349600
O       -1.68301200      -1.34436100      -0.58961400
C       -1.98586900      -2.50431200      -0.21755300
C       -3.33482400      -2.99870700      -0.22005400
H       -1.19360300      -3.17749800       0.12937100
C       -4.41721100      -2.23148400      -0.70903700
C       -3.55471400      -4.29884600       0.28639400
C       -5.69807900      -2.76382600      -0.68050400
H       -4.22985400      -1.23810800      -1.10104600
C       -4.84366900      -4.82153000       0.31559300
H       -2.71173000      -4.87925800       0.65216000
C       -5.91135200      -4.05423100      -0.16665800
H       -6.53711100      -2.18554900      -1.05525500
H       -5.02100100      -5.81841200       0.70688900
H       -6.91794800      -4.46294000      -0.14645800
C       -0.26840300      -1.54587500       3.28085700
C        0.25927200      -1.61238900       2.08332700
H        0.09910500      -0.83307200       4.01808200
H       -1.08999400      -2.19796700       3.57455400
C        0.75041700      -1.66228200       0.87521100
H        1.58009400      -2.34352400       0.67922700
Cl      -0.56800000       0.55582500      -2.38888300
Cl       0.70445800      -2.35720900      -2.03888100
O       -0.53745700       0.69110400       0.57795400
O        1.81772800       0.26477900      -0.87518600
C        0.90248800       2.46203300       0.34541700
C        1.91837800       1.60185200       0.99999800
C        3.51378500      -0.16166400       0.73437400
C       -1.42818900       2.77689800      -0.09955600
C       -1.10069000       3.97894600      -0.80792500
C        1.22434400       3.71118400      -0.19202200
C        0.23995800       4.42392600      -0.84423800
C        2.30565400       1.81273400       2.32766600
C        3.16617700       0.91159900       2.91779300
C        3.78777300      -0.09047100       2.13918400
H        2.25065600       4.05474000      -0.14469200
H        0.47769400       5.34301600      -1.36966900
H        1.85870800       2.63097500       2.87899300
H        3.39295100       0.97425300       3.97709900
C        4.69945600      -1.01543100       2.70947000
C        4.33268900      -0.96673700      -0.10378200
N       -0.35755300       1.98429200       0.29482600
N        2.43897300       0.59144600       0.27855300
C       -2.79015500       2.46932800       0.17593600
C       -2.13965000       4.70931500      -1.44056600
C       -3.76365600       3.21727200      -0.46935200
C       -3.44474400       4.29420900      -1.32453000
H       -1.87777300       5.60104400      -2.00135300
C       -3.24010800       1.53763900       1.30128400
H       -4.80793400       3.00637100      -0.27056200
H       -4.24431500       4.83317900      -1.82129100
C        5.34511200      -1.92951800       1.91056600
C        5.20457300      -1.85576900       0.50801000
C        4.48172200      -0.74360400      -1.61071500
H        4.88044600      -0.97170500       3.77885600
H        6.02706300      -2.65588500       2.33924300
H        5.84219400      -2.47570500      -0.11167400
F        3.63555800      -1.46096800      -2.37032800
F        5.74239500      -1.08758900      -2.00931500
F        4.33472700       0.57045300      -1.92880200
F       -4.46546100       1.91745700       1.76842900
F       -2.39712300       1.60485000       2.36572600
F       -3.36406600       0.24258700       0.94340600
