75
Properties=species:S:1:pos:R:3 pbc="F F F"
Si      -0.44122900      -0.08896000       1.45831800
O        1.11620200       0.85235100       0.73785500
C        1.15188500       1.85902900      -0.01707900
C        2.38695600       2.53132600      -0.33047600
H        0.23964000       2.19661300      -0.51578100
C        3.60802200       2.16296600       0.27502000
C        2.35551700       3.54567400      -1.31030500
C        4.77897700       2.80624200      -0.10265100
H        3.61542600       1.38108800       1.02704400
C        3.53459700       4.18103300      -1.68666300
H        1.40761400       3.81719300      -1.76847400
C        4.74344900       3.81105300      -1.08254900
H        5.72333300       2.53000400       0.35640200
H        3.51881800       4.96060200      -2.44206200
H        5.66414300       4.30856000      -1.37481000
C       -0.11742800       3.91019400       1.84004900
C       -0.58260300       2.72307800       2.16443300
H       -0.64929500       4.55717800       1.14374400
H        0.79957900       4.29593800       2.28413400
C       -0.97008600       1.50813600       2.41833200
H       -1.63541200       1.31613000       3.26089700
Cl       0.88390000      -0.74612500       3.13967300
Cl      -2.16342000      -1.34117000       2.08487700
O       -1.37162700       0.54624100      -0.10343200
O        0.12288700      -1.57315600       0.41076700
C       -1.29802400      -1.01752300      -1.77733100
C        0.17306500      -0.87123000      -1.77416300
C        2.24623500      -1.44329800      -0.67963500
C       -3.44605800      -0.30087700      -0.93067900
C       -4.04428800      -1.30411500      -1.78084400
C       -1.88218500      -1.92388400      -2.66654700
C       -3.24617400      -2.09453600      -2.63379500
C        0.84823300      -0.34721700      -2.88231600
C        2.21957200      -0.22002300      -2.82405100
C        2.94248400      -0.76316600      -1.74034600
H       -1.24072200      -2.49995300      -3.32256100
H       -3.72715700      -2.83112500      -3.26948400
H        0.26976000       0.00378900      -3.72814000
H        2.76246900       0.27813700      -3.62105600
N       -2.04459600      -0.27231500      -0.93359400
N        0.85602100      -1.31464000      -0.69786900
C        2.95731800      -2.20903300       0.29499500
C        4.35562400      -0.67798700      -1.69797000
H        4.86857100      -0.14096200      -2.48936600
C        4.34117900      -2.06744500       0.27487900
C        5.03807100      -1.28575100      -0.67264200
H        6.11987000      -1.21722400      -0.61306800
C       -4.27901400       0.59046200      -0.17495100
C       -5.44975100      -1.48163700      -1.78582000
H       -5.87135500      -2.25135000      -2.42462500
C       -6.23852800      -0.67808600      -1.00257400
C       -5.64719400       0.34645200      -0.23583700
H        4.92667800      -2.61673300       1.00233300
C       -3.77828200       1.81171800       0.58289200
C       -3.31832000       2.89500900      -0.41640800
H       -2.89447200       3.74101000       0.13636500
H       -2.55650900       2.51570300      -1.10363800
H       -4.17267000       3.25567800      -1.00287700
C       -4.78408300       2.41406500       1.57367000
H       -5.63535500       2.88521200       1.06696700
H       -5.16429400       1.65895100       2.27090900
H       -4.26991400       3.18992200       2.15114300
C        2.29714500      -3.27616800       1.16166000
C        3.22123000      -3.88480600       2.22326200
H        4.04497100      -4.45309900       1.77334600
H        3.64252000      -3.11333800       2.87767400
H        2.63508700      -4.57536300       2.83850600
C        1.74215000      -4.38702300       0.24000100
H        1.24846600      -5.15110300       0.85098000
H        1.00877000      -3.99251400      -0.47091700
H        2.55556300      -4.86211000      -0.32256400
H       -2.91311200       1.51609900       1.16474700
H        1.45519400      -2.83148500       1.68398400
H       -6.30815800       0.99084300       0.33069800
H       -7.31683400      -0.80346600      -0.98691100
