75
Properties=species:S:1:pos:R:3 pbc="F F F"
Si      -0.09434100      -0.94196000      -0.02948200
O        1.50675900      -1.74496000      -0.65941200
C        2.70321400      -1.39108900      -0.48759400
C        3.81476700      -2.22484900      -0.85775100
H        2.92506900      -0.39791400      -0.08743700
C        3.63239000      -3.51115500      -1.41342500
C        5.11522900      -1.71900600      -0.64345900
C        4.74332000      -4.27470400      -1.74452400
H        2.62609900      -3.88531000      -1.57153400
C        6.22215000      -2.49196400      -0.97832300
H        5.24051300      -0.72982000      -0.21082000
C        6.03507600      -3.76706300      -1.52712900
H        4.61552000      -5.26473900      -2.17143300
H        7.22515000      -2.11029300      -0.81452100
H        6.89944700      -4.37148300      -1.78800000
C        2.77823700      -2.09999500       2.56217000
C        1.61614300      -1.58820900       2.22602400
H        3.65706800      -1.47029900       2.69144800
H        2.89618500      -3.16897900       2.73558700
C        0.49232000      -1.08138300       1.80708400
H       -0.23003400      -0.73766800       2.54901600
Cl      -0.59069500      -0.84073700      -2.25791900
Cl      -1.13952200      -2.92295800       0.06238700
O       -1.52152000       0.04485500       0.60692200
O        0.75053600       0.76154700      -0.31607100
C       -2.14616600       1.38973700      -1.13323100
C       -1.00226600       2.30348300      -0.88461900
C        1.19225800       3.01132700      -0.09958900
C       -3.69034700      -0.28494200      -0.26807000
C       -4.50544100      -0.09311700      -1.43651100
C       -2.98740400       1.61191300      -2.24332500
C       -4.11119700       0.84533800      -2.41578000
C       -1.26054500       3.64807900      -1.25157400
C       -0.27602600       4.59652400      -1.25388900
C        0.98305400       4.29595400      -0.69716800
H       -2.69391400       2.34231900      -2.98472800
H       -4.72199700       0.96352500      -3.30557200
H       -2.25965600       3.90695600      -1.57430200
H       -0.46798500       5.59291900      -1.63855100
N       -2.48230100       0.41352200      -0.25696200
N        0.24054000       1.99566200      -0.38639400
C        2.33559300       2.80197100       0.73854500
C        2.00774700       5.27251200      -0.66506600
H        1.82446900       6.23083200      -1.14110000
C        3.31363500       3.79191700       0.70431000
C        3.18895300       4.99389600      -0.02180900
H        3.99820300       5.71746100      -0.00581600
C       -4.12789300      -1.13208500       0.80275500
C       -5.69531500      -0.84095100      -1.59327600
H       -6.28793900      -0.69349800      -2.49042100
C       -6.07466400      -1.72057100      -0.60849600
C       -5.30784400      -1.83162700       0.57045300
H        4.20038300       3.66079300       1.31243200
C       -3.47077700      -1.18950700       2.18115100
C       -3.62347500       0.17967300       2.88072000
H       -3.10367700       0.15755600       3.84552200
H       -3.20258300       0.99451500       2.28418700
H       -4.68401700       0.39272200       3.06377300
C       -4.00862600      -2.30010800       3.09438000
H       -5.05319900      -2.12758100       3.38149500
H       -3.93221600      -3.28390300       2.61812700
H       -3.40866400      -2.31367700       4.01052300
C        2.40185100       1.72031400       1.80716800
C        1.29202700       2.00085200       2.84585500
H        1.45711000       2.97333100       3.32534700
H        0.30088400       2.00333500       2.38061700
H        1.30826900       1.22007600       3.61308200
C        3.75850900       1.58346000       2.50903100
H        3.70160700       0.74447800       3.20915500
H        4.56552200       1.38674300       1.79341500
H        4.01425300       2.47946600       3.08702300
H       -2.41056900      -1.38612000       2.04251900
H        2.16903600       0.76078000       1.36457300
H       -5.67845700      -2.48934300       1.34702100
H       -6.98020000      -2.31049200      -0.71209600
