81
Properties=species:S:1:pos:R:3 pbc="F F F"
Si      -0.35502300      -0.04668200       1.40267400
O        1.01090600       1.01877300       0.44223300
C        1.82613400       1.82755000       0.94830000
C        2.61146800       2.73398700       0.14798200
H        1.99185200       1.81358400       2.03073200
C        2.36340800       2.92170900      -1.22847500
C        3.66516500       3.42610400       0.77939100
C        3.17270400       3.77829100      -1.96117300
H        1.53221700       2.40386300      -1.69338400
C        4.47965000       4.27572600       0.03561800
H        3.83862000       3.28186700       1.84251500
C        4.23421200       4.44938700      -1.33182700
H        2.98483200       3.93375000      -3.01935000
H        5.29847500       4.80399500       0.51406100
H        4.86658100       5.11621600      -1.91142900
C       -0.25607700       3.98937000       1.85713600
C       -0.65047600       2.76271200       2.11643400
H        0.59278100       4.43523800       2.37395100
H       -0.78245100       4.60763800       1.13031500
C       -1.00449600       1.52701200       2.31797000
H       -1.74294900       1.30518100       3.08961200
Cl       1.11526100      -0.49082200       3.04497200
Cl      -1.92657700      -1.42177000       2.15270700
O       -1.37766600       0.48861400      -0.11448400
O        0.28119200      -1.54539700       0.40383100
C       -1.28338900      -1.15458700      -1.72547300
C        0.17334900      -0.91158000      -1.81317000
C        2.31312800      -1.33671200      -0.80110200
C       -3.40914400      -0.51344400      -0.79122600
C       -3.93294200      -1.77442400      -1.25619400
C       -1.85422500      -2.23343800      -2.41145700
C       -3.14820100      -2.58984900      -2.10248300
C        0.77639200      -0.32205900      -2.92982500
C        2.12049700      -0.01452100      -2.86187900
C        2.91239500      -0.48330100      -1.78842700
H       -1.22998400      -2.82287700      -3.07186800
H       -3.57834800      -3.50602700      -2.49486800
H        0.15640900      -0.02842300      -3.76784000
H        2.58781100       0.58454000      -3.63726900
N       -2.02271400      -0.38064300      -0.90882600
N        0.92317300      -1.30103100      -0.76563000
C        3.10766100      -2.14602500       0.06531600
C        4.28364200      -0.15721100      -1.65948400
H        4.73825800       0.51046600      -2.38403300
C        4.42903100      -1.71768700       0.17942600
C        4.99940100      -0.69729400      -0.61592100
H        6.03864400      -0.42474700      -0.46042200
C       -4.27615800       0.46756300      -0.21919000
C       -5.22856800      -2.17489900      -0.85650200
H       -5.61019000      -3.13205100      -1.19774500
C       -5.96021400      -1.34724800      -0.03679800
H       -6.93124700      -1.65362500       0.33953400
C       -5.49853500      -0.04232100       0.22260000
H       -6.17609600       0.63178700       0.73426200
H        5.09090600      -2.24173800       0.85829700
C       -4.15869600       2.02065600      -0.25164800
C       -4.25643500       2.61080500       1.16961700
H       -5.18851500       2.31743300       1.66416000
H       -3.41142200       2.28507100       1.77893600
H       -4.23683200       3.70508500       1.10256100
C       -2.92013100       2.61293500      -0.95835500
H       -2.69489200       2.08281000      -1.89110100
H       -3.14498000       3.65487600      -1.21272100
H       -2.03912400       2.60205900      -0.32116900
C       -5.38304200       2.51297700      -1.08444400
H       -5.34087000       2.11188700      -2.10410200
H       -6.33882700       2.22529000      -0.63775100
H       -5.34881500       3.60691700      -1.13789500
C        2.69366200      -3.54921600       0.59895000
C        3.94266400      -4.47352600       0.55856500
H        4.41687500      -4.46652500      -0.42948400
H        4.68711300      -4.19715400       1.31181900
H        3.61477100      -5.49373700       0.78387300
C        2.16839100      -3.55807100       2.04642800
H        2.88201400      -3.07418200       2.72140700
H        1.21100400      -3.04772300       2.12750300
H        2.04491600      -4.60170700       2.36152200
C        1.64601700      -4.20517400      -0.33387900
H        1.53946800      -5.25617800      -0.04447900
H        0.66226000      -3.74301300      -0.24656400
H        1.97430200      -4.17162200      -1.37980500
