81
Properties=species:S:1:pos:R:3 pbc="F F F"
Si      -0.18467100       0.66289700      -0.64000500
O        1.63232300       1.37747200      -0.57185400
C        1.90518300       2.56335200      -0.26347500
C        3.24761100       3.07673100      -0.26186900
H        1.09268900       3.23953100       0.02432100
C        4.34218800       2.31131900      -0.72415800
C        3.44959200       4.38712700       0.22329000
C        5.61892800       2.85323800      -0.68702000
H        4.16544000       1.31335100      -1.11005800
C        4.73482900       4.91867900       0.26558400
H        2.59677400       4.96724700       0.56587900
C        5.81539700       4.15196200      -0.18814800
H        6.46678200       2.27641100      -1.04373900
H        4.89922300       5.92276900       0.64391800
H        6.81851000       4.56862200      -0.15945100
C        0.66870400       1.88440300       3.11288400
C       -0.08284800       1.75009200       2.04649700
H        1.35573900       2.72361700       3.21802300
H        0.62728100       1.16445700       3.92911600
C       -0.76670500       1.60316400       0.94593900
H       -1.74923000       2.07025000       0.86625600
Cl       0.55726200      -0.42515600      -2.45066000
Cl      -0.85153100       2.39968700      -1.93814700
O        0.48097300      -0.71972500       0.53105100
O       -1.81190300      -0.24916800      -0.89708800
C       -0.80467400      -2.55543400       0.02520800
C       -1.90355700      -1.86148400       0.73906100
C       -3.50366900      -0.05999100       0.76636100
C        1.57931800      -2.66670100      -0.27259700
C        1.36836800      -3.72946400      -1.21863400
C       -0.99915900      -3.73805800      -0.69241200
C        0.06976800      -4.25748200      -1.39510400
C       -2.30708500      -2.30125000       2.00553900
C       -3.12929000      -1.48228700       2.74781500
C       -3.70508200      -0.32898900       2.16874200
H       -1.99501200      -4.15961100      -0.75303900
H       -0.07157100      -5.08789800      -2.07999400
H       -1.86959200      -3.20543700       2.41052500
H       -3.33883000      -1.70741300       3.78893900
N        0.42239100      -2.00561900       0.12617800
N       -2.43503800      -0.75339800       0.19149800
C       -4.32213600       0.88826700       0.08122800
C       -4.48181700       0.56572900       2.93987300
H       -4.62027600       0.36335000       3.99718900
C       -4.98745100       1.78057700       0.92562000
C       -5.03309600       1.66859000       2.32892600
H       -5.58479300       2.40501000       2.90474100
C        2.88927600      -2.34599100       0.20147600
C        2.47851400      -4.23337900      -1.93856800
H        2.31815700      -5.02038800      -2.66868100
C        3.72658300      -3.71408800      -1.68950700
H        4.58843700      -4.04686500      -2.25959300
C        3.91885100      -2.83564000      -0.59964900
H        4.94274300      -2.59706300      -0.33974100
H       -5.58299900       2.56376500       0.47007100
C        3.22320900      -1.75660500       1.60265200
C        3.43142800      -0.23100500       1.59564100
H        4.17991800       0.04839600       0.84757000
H        2.50236700       0.29488200       1.39569100
H        3.80108200       0.07835300       2.58097900
C        2.13916700      -2.13920100       2.64071200
H        1.94350600      -3.21821000       2.61990900
H        2.51150500      -1.88164300       3.63835100
H        1.20583800      -1.59690500       2.49048400
C        4.54527700      -2.39229700       2.11501900
H        4.50927900      -3.48669200       2.07234100
H        5.41891400      -2.04336700       1.55533400
H        4.68541700      -2.08650200       3.15705900
C       -4.79196200       0.87505800      -1.40356100
C       -6.31862400       0.55980900      -1.33116000
H       -6.48858400      -0.42139700      -0.87195200
H       -6.87035100       1.31172200      -0.75908500
H       -6.71915100       0.54248200      -2.35105100
C       -4.59939200       2.25294200      -2.06851300
H       -5.12396500       3.04684300      -1.52644800
H       -3.53778100       2.50260100      -2.12774800
H       -5.00950600       2.21312100      -3.08439300
C       -4.18683500      -0.20300100      -2.32477200
H       -4.83511800      -0.29003000      -3.20391000
H       -3.18767300       0.06099800      -2.66537000
H       -4.15268200      -1.18363100      -1.83676200
