81
Properties=species:S:1:pos:R:3 pbc="F F F"
Si       0.13455300      -0.70885400      -0.35879900
O       -1.59272100      -1.39365800       0.13840900
C       -2.32854900      -2.10317400      -0.59233600
C       -3.51088700      -2.75319800      -0.09806600
H       -2.07211300      -2.22714300      -1.64962000
C       -3.87253700      -2.71470400       1.26794100
C       -4.31209800      -3.45199300      -1.02746700
C       -5.02497600      -3.36408900       1.68693900
H       -3.24041900      -2.18335800       1.97029600
C       -5.46833600      -4.09595500      -0.59832900
H       -4.01803400      -3.47658100      -2.07348000
C       -5.82237500      -4.05095200       0.75602200
H       -5.31066900      -3.34489800       2.73426000
H       -6.09104100      -4.63209600      -1.30767400
H       -6.72312400      -4.55700000       1.09250900
C       -0.13308300      -4.71155900      -0.65755000
C        0.28565000      -3.51819000      -1.00873200
H       -1.05947600      -5.12706400      -1.05300100
H        0.43967800      -5.32964300       0.03323000
C        0.65420300      -2.30415500      -1.30541200
H        1.28532600      -2.13250100      -2.17671600
Cl      -0.75542600       0.11183300      -2.33545300
Cl       0.82406400      -1.37512500       1.66576100
O       -0.41989300       0.86930300       0.57246000
O        1.76210100       0.08856200      -0.82444100
C        0.83893900       2.56386000      -0.35526300
C        1.99157700       2.01945000       0.39692300
C        3.59078100       0.23737000       0.67993100
C       -1.55952400       2.65810200      -0.50657000
C       -1.41042000       3.53320100      -1.63879600
C        0.98616200       3.59646900      -1.28453600
C       -0.12578100       3.99678600      -1.99744100
C        2.51611600       2.73200500       1.48105400
C        3.42057500       2.09416300       2.30135900
C        3.93920200       0.82793100       1.94993500
H        1.97716900       3.98572300      -1.48360800
H       -0.02980900       4.68684600      -2.82999700
H        2.11389400       3.71170300       1.70894200
H        3.73892700       2.55083400       3.23331800
N       -0.37941100       2.05690100      -0.07856300
N        2.47281800       0.80766600       0.06546400
C        4.33209000      -0.86993500       0.16598000
C        4.79593700       0.12633400       2.82906400
H        5.04145700       0.57158200       3.78808200
C        5.08175400      -1.54919600       1.12856200
C        5.28011600      -1.10370900       2.44928200
H        5.88873200      -1.69541000       3.12585000
C       -2.83526300       2.45642900       0.10593200
C       -2.56406400       3.92361100      -2.36033600
H       -2.44816900       4.56666800      -3.22709700
C       -3.79522700       3.48064500      -1.93957400
H       -4.69291400       3.72292500      -2.49981400
C       -3.91492500       2.81567900      -0.69895200
H       -4.91899300       2.64783200      -0.32956300
H        5.61328200      -2.44262400       0.82099600
C       -3.07720700       2.13989800       1.60989100
C       -3.27720500       0.64079200       1.90125200
H       -4.04793100       0.22185900       1.24485700
H       -2.35414400       0.08288100       1.76966500
H       -3.61288400       0.52402800       2.93916000
C       -1.92983300       2.70450400       2.48377900
H       -1.75888100       3.76506400       2.26230800
H       -2.22514000       2.62067300       3.53550500
H       -0.99735600       2.15333400       2.36206600
C       -4.36664900       2.86818300       2.08001800
H       -4.34477300       3.93335200       1.82383200
H       -5.27384100       2.42058000       1.66144600
H       -4.43039100       2.77060000       3.16878900
C        4.61494900      -1.26479600      -1.31395400
C        6.15553400      -1.09634300      -1.50106600
H        6.45053600      -0.05271600      -1.33960600
H        6.73268300      -1.72934900      -0.82126300
H        6.41362200      -1.37674600      -2.52836200
C        4.24527200      -2.74108000      -1.56766500
H        4.81971500      -3.41484000      -0.92304000
H        3.18168000      -2.91318100      -1.38880400
H        4.47478100      -2.99340800      -2.60973900
C        3.97728700      -0.38429600      -2.40958400
H        4.52895100      -0.55489100      -3.34080200
H        2.93306600      -0.62917700      -2.59076400
H        4.05304800       0.68191200      -2.16735100
