61
Properties=species:S:1:pos:R:3 pbc="F F F"
Si      -0.02893000      -0.56011200       0.59493000
O        1.84757300      -1.00963900       0.22917100
C        2.23844000      -2.16542400      -0.05819500
C        3.62740600      -2.49216600      -0.24135500
H        1.49744100      -2.96515500      -0.18196800
C        4.65004300      -1.53484000      -0.05014500
C        3.94986400      -3.81249000      -0.62338600
C        5.97401800      -1.90309300      -0.24515500
H        4.38293500      -0.52599400       0.24372900
C        5.28005400      -4.17077800      -0.82004400
H        3.15278200      -4.53819300      -0.76273900
C        6.28808500      -3.21693800      -0.63098000
H        6.76848500      -1.17758000      -0.09873000
H        5.53555700      -5.18372000      -1.11522900
H        7.32714800      -3.49712900      -0.78127700
C       -1.96882700      -3.81459900      -0.93970800
C       -1.29771800      -2.68977600      -0.94493800
H       -1.45948100      -4.77712400      -0.94582300
H       -3.05704000      -3.81719300      -0.91577700
C       -0.63555100      -1.56454800      -0.94467700
H       -0.40392400      -1.12363000      -1.91686900
Cl       0.83605400       0.76776800       2.18866600
Cl      -0.21172500      -2.22815600       2.05076300
O        0.25406000       0.84534600      -0.73484000
O       -1.70636100       0.22256900       1.03813100
C       -1.21201900       2.54645900      -0.26327600
C       -2.29836300       1.63497200      -0.68792200
C       -3.62251400      -0.31883900      -0.24849900
C        1.15059200       2.96810800      -0.23060500
C        0.88851500       4.25590500       0.34264100
C       -1.49139100       3.83720500       0.20104500
C       -0.44776600       4.66296400       0.55781200
C       -3.06520400       1.94797900      -1.81728300
C       -4.03396200       1.06510800      -2.24007500
C       -4.33566600      -0.07973000      -1.47115000
H       -2.52596900       4.13836000       0.31139500
H       -0.63882700       5.64079000       0.98801500
H       -2.83678200       2.85502700      -2.36377000
H       -4.58820900       1.24756700      -3.15515500
N        0.06298000       2.12562500      -0.40840500
N       -2.54471600       0.51456800       0.02557700
C       -4.06114000      -1.34462500       0.64576700
C       -5.35854500      -0.97624000      -1.86786100
H       -5.87165200      -0.79213000      -2.80629400
C       -5.07741000      -2.19497100       0.19391200
C       -5.69764400      -2.03829500      -1.05879400
H       -6.47542200      -2.73340500      -1.35813300
C        2.47875600       2.60757100      -0.61910400
C        1.97652400       5.10588400       0.66269900
H        1.76509800       6.06994700       1.11418900
C        3.26713200       4.71012800       0.38778700
H        4.10511200       5.35262500       0.63832100
C        3.50713600       3.49043900      -0.27164400
H        4.52024300       3.22824200      -0.55843700
H       -5.41367700      -2.98039400       0.86268500
C       -3.63913900      -1.48220400       1.99557200
C        2.81601600       1.49401300      -1.43951500
C        3.23075800       0.65310100      -2.20628800
H        3.56190900      -0.12738500      -2.85542200
C       -3.43874200      -1.64598000       3.17814900
H       -3.19473600      -1.77873900       4.20934300
