61
Properties=species:S:1:pos:R:3 pbc="F F F"
Si      -0.04364900      -0.60503000       0.51817400
O        1.76638200      -0.87140900       0.07179500
C        2.31547000      -1.87095700      -0.46275500
C        3.74756600      -2.01809400      -0.50050700
H        1.69977000      -2.61913000      -0.96904600
C        4.60943200      -1.09061600       0.12550300
C        4.27906400      -3.11949800      -1.20385200
C        5.98357200      -1.27254700       0.04485100
H        4.18496000      -0.24872200       0.66179100
C        5.65760100      -3.29121900      -1.28360000
H        3.60344100      -3.82741200      -1.67682300
C        6.50729700      -2.36928900      -0.65895300
H        6.65507100      -0.56703400       0.52491400
H        6.07250900      -4.13642800      -1.82409700
H        7.58380600      -2.50441300      -0.71839700
C        1.73744700      -3.98970000       1.66611900
C        0.78831400      -3.07921900       1.71782200
H        1.64539200      -4.86690100       1.02623300
H        2.63317300      -3.90824800       2.28094400
C       -0.09510000      -2.12679900       1.69575700
H       -0.93742400      -2.14377300       2.38446900
Cl       0.69148100       0.73841600       2.21016400
Cl      -0.78860500      -1.78774200      -1.29103500
O        0.03230100       0.81290400      -0.73540300
O       -1.80239700      -0.05818700       1.00959300
C       -1.54236600       2.38644100      -0.14892600
C       -2.57562600       1.42272200      -0.58448400
C       -3.72860200      -0.65067200      -0.22353000
C        0.78663100       2.97231400      -0.13119400
C        0.44580900       4.20663700       0.51463200
C       -1.90228500       3.63303300       0.37770900
C       -0.91142700       4.50904400       0.76378700
C       -3.41673200       1.74894600      -1.65656500
C       -4.33621200       0.82385500      -2.09662100
C       -4.51462700      -0.38866900      -1.39469800
H       -2.95322400       3.85652900       0.51590700
H       -1.16236300       5.44908100       1.24487000
H       -3.27978400       2.70290100      -2.15106200
H       -4.94291600       1.02046400      -2.97471400
N       -0.24430500       2.06724100      -0.33240500
N       -2.70351500       0.24329400       0.06060700
C       -4.03722200      -1.77258600       0.60694800
C       -5.47803000      -1.33975100      -1.81331800
H       -6.04929600      -1.13471800      -2.71303400
C       -4.99399700      -2.67760000       0.13305400
C       -5.68436700      -2.48547400      -1.07730500
H       -6.41234900      -3.22367900      -1.39778100
C        2.12873600       2.73143600      -0.56058400
C        1.47686500       5.11050900       0.87216900
H        1.20523400       6.02994700       1.38074500
C        2.78757600       4.82018800       0.56332200
H        3.58369700       5.50247500       0.84330100
C        3.09921600       3.66154600      -0.17161700
H        4.12272600       3.48792600      -0.48734500
H       -5.22970600      -3.53645500       0.75276700
C       -3.55933000      -1.96482700       1.93364200
C        2.52990800       1.70222900      -1.45781100
C        2.99311700       0.95026600      -2.28632500
H        3.37111400       0.24526300      -2.99372100
C       -3.32927700      -2.19372900       3.10099300
H       -3.07771800      -2.37642600       4.12316400
