61
Properties=species:S:1:pos:R:3 pbc="F F F"
Si       0.54307300      -0.83288800       1.07145300
O       -1.00699000      -0.94058400      -0.10179000
C       -1.72483600      -1.95080300      -0.32725100
C       -3.01377700      -1.87054200      -0.97052100
H       -1.34123900      -2.94291300      -0.07370900
C       -3.58855900      -0.64338100      -1.36161100
C       -3.70317900      -3.07955700      -1.20280100
C       -4.83699900      -0.63033000      -1.96886700
H       -3.04920600       0.27774200      -1.18264100
C       -4.95376800      -3.05958300      -1.81279800
H       -3.25149900      -4.01880300      -0.89455700
C       -5.52010100      -1.83633600      -2.19303700
H       -5.28611900       0.31138600      -2.26950300
H       -5.48908100      -3.98712300      -1.99080200
H       -6.49769400      -1.82015600      -2.66693900
C       -2.84716800      -2.41485100       2.47203500
C       -1.70579700      -1.77391800       2.60167500
H       -2.90368100      -3.49936800       2.55979200
H       -3.77809000      -1.87508400       2.30088800
C       -0.57907600      -1.12916900       2.61759000
H       -0.19698400      -0.71749400       3.55024100
Cl       2.37406200      -0.35189600       2.25965100
Cl       1.08359600      -2.97150100       0.78807200
O        1.34688500      -0.42696200      -0.60907700
O        0.11938800       1.09023200       1.21176700
C        1.91740200       1.81008800      -0.66191300
C        0.48249800       2.12246200      -0.81287100
C       -1.70422300       2.16720200       0.16937200
C        3.63960400       0.14275500      -0.73017000
C        4.61171200       1.16699500      -0.48190200
C        2.86417300       2.83789500      -0.56461200
C        4.19283700       2.51331000      -0.39824100
C        0.02597300       2.78377600      -1.96196400
C       -1.31706100       3.04636600      -2.09875200
C       -2.20783800       2.75026500      -1.04117200
H        2.51699000       3.86404100      -0.55913800
H        4.93377700       3.28725100      -0.22656600
H        0.74211200       3.02804300      -2.73720900
H       -1.70545600       3.49459200      -3.00734400
N        2.30399500       0.51728100      -0.66814100
N       -0.36549200       1.78532600       0.18167100
C       -2.56081100       2.02629400       1.30637700
C       -3.59174300       3.03321300      -1.15359300
H       -3.95922900       3.45612800      -2.08308500
C       -3.92068100       2.30589800       1.12186500
C       -4.43857500       2.77534600      -0.09774800
H       -5.50207700       2.97342800      -0.18325900
C        4.06164000      -1.17951400      -1.06851800
C        5.97819700       0.81072200      -0.36354900
H        6.70057700       1.59186600      -0.14858000
C        6.36681400      -0.49967100      -0.53934000
H        7.40943600      -0.78315600      -0.43798400
C        5.42343700      -1.46921000      -0.92712700
H        5.75722600      -2.47192400      -1.17310600
H       -4.58135600       2.19045500       1.97467100
C       -2.12447700       1.76418800       2.63433200
C        3.23364500      -2.15239400      -1.69245300
C        2.66278000      -3.00449300      -2.33595500
H        2.11352300      -3.75711200      -2.85800100
C       -1.89167200       1.65983800       3.81794400
H       -1.64113700       1.51947200       4.84673100
