59
Properties=species:S:1:pos:R:3 pbc="F F F"
Si       0.54416800      -0.86528900       1.07493100
O       -0.99847600      -0.94879200      -0.10131900
C       -1.70468100      -1.95933000      -0.36536700
C       -2.99071300      -1.86875800      -1.01012700
H       -1.31338400      -2.95541200      -0.14197400
C       -3.56761700      -0.63482300      -1.37748700
C       -3.67657200      -3.07440500      -1.26981900
C       -4.81476600      -0.61142700      -1.98611700
H       -3.02815400       0.28298500      -1.18225300
C       -4.92652100      -3.04403300      -1.88061200
H       -3.22267400      -4.01887300      -0.98167500
C       -5.49510400      -1.81435400      -2.23553700
H       -5.26498200       0.33516900      -2.26937400
H       -5.45927800      -3.96872000      -2.07940400
H       -6.47190700      -1.79031500      -2.71063900
C       -2.79928600      -2.52713800       2.44414300
C       -1.68819100      -1.83841200       2.58447100
H       -2.81170400      -3.61116300       2.55183700
H       -3.74837900      -2.03007800       2.24686000
C       -0.58380700      -1.15504500       2.61099300
H       -0.23824800      -0.70423900       3.53971900
Cl       2.37126300      -0.37149400       2.24801200
Cl       1.10700700      -2.97550000       0.75365200
O        1.32990500      -0.40087400      -0.61641400
O        0.10589100       1.09095600       1.24187100
C        1.91465800       1.83794900      -0.62796700
C        0.48035800       2.16058000      -0.76881100
C       -1.70316100       2.17202700       0.20684200
C        3.61554900       0.15742900      -0.72787700
C        4.60423400       1.16065800      -0.48197900
C        2.87496000       2.85177400      -0.51988100
C        4.20284200       2.51076700      -0.37230600
C        0.01934300       2.84934800      -1.89982100
C       -1.32451800       3.11716800      -2.02927200
C       -2.21282000       2.78915000      -0.97903000
H        2.54048300       3.88179800      -0.49500900
H        4.95311000       3.27455500      -0.19644900
H        0.73327800       3.11291100      -2.67075400
H       -1.71297100       3.59022900      -2.92487100
N        2.28722600       0.54094200      -0.65601100
N       -0.36626200       1.79713000       0.21879500
C       -2.56069900       1.98191100       1.32924900
C       -3.60123200       3.06739100      -1.07072500
H       -3.97756700       3.51595800      -1.98457900
C       -3.91905000       2.26861300       1.18288300
C       -4.44364500       2.77579400      -0.02099300
H       -5.50738700       2.97426700      -0.09526300
C        4.01828100      -1.16521900      -1.06926500
C        5.96649600       0.77502500      -0.38673500
H        6.70591800       1.53964800      -0.17077500
C        6.33493400      -0.53770900      -0.58236000
H        7.37411600      -0.83730300      -0.49940100
C        5.37124900      -1.49021600      -0.96840800
H        5.68458600      -2.49410600      -1.23502200
H       -4.57298000       2.12566700       2.03654200
C       -2.11147500       1.67900600       2.65339000
C        3.16261700      -2.11521900      -1.71013000
N       -1.88203100       1.55355300       3.78533500
N        2.59544500      -2.89896500      -2.35326500
