59
Properties=species:S:1:pos:R:3 pbc="F F F"
Si      -0.51283500       0.28821200       1.48622700
O        1.15599200       0.72470900       0.59476000
C        1.37818100       1.63214000      -0.25217700
C        2.71550300       1.95976500      -0.67222000
H        0.53950400       2.13644500      -0.73910200
C        3.84645000       1.37114300      -0.06406700
C        2.87341600       2.86576300      -1.74240400
C        5.11523600       1.68823700      -0.52881300
H        3.70936200       0.68520600       0.76509800
C        4.14889800       3.17305800      -2.20534400
H        1.99471100       3.31437100      -2.19842100
C        5.26667400       2.58544600      -1.59860200
H        5.99091800       1.24411900      -0.06552100
H        4.27814100       3.86724900      -3.02986800
H        6.26289300       2.82880900      -1.95747700
C        0.80590200       4.09847700       1.41682200
C       -0.02360600       3.12837200       1.73374300
H        0.65585700       4.69872300       0.52001400
H        1.65163300       4.35062800       2.05550500
C       -0.79855400       2.11944900       2.00162000
H       -1.69327100       2.28030500       2.60269800
Cl       0.69597300      -0.23416600       3.25852400
Cl      -2.42145000      -0.50941400       2.26165100
O       -1.36597800       0.72357700      -0.27268400
O       -0.23569000      -1.48665900       0.74967700
C       -1.54769500      -1.18577900      -1.56668000
C       -0.07453100      -1.30034800      -1.54728900
C        1.84491000      -1.94711000      -0.26953900
C       -3.51299900       0.01959900      -0.92743100
C       -4.31211100      -1.01202100      -1.51795500
C       -2.30818200      -2.15488900      -2.23293900
C       -3.68230200      -2.09354500      -2.17178100
C        0.69627700      -1.18697900      -2.71207400
C        2.06602200      -1.32348300      -2.63080200
C        2.66889800      -1.72324800      -1.41658500
H       -1.79286400      -2.96244000      -2.73851500
H       -4.29270900      -2.86734900      -2.62539600
H        0.19955300      -0.94055600      -3.64251600
H        2.69150800      -1.15161800      -3.50062700
N       -2.13625400      -0.15714200      -0.91861900
N        0.50957600      -1.58990000      -0.36532600
C        2.40025900      -2.53146000       0.90346100
C        4.06815600      -1.93042500      -1.30862900
H        4.68783500      -1.73224000      -2.17709400
C        3.78112800      -2.72511200       0.95311200
C        4.61589400      -2.38702300      -0.13031300
H        5.68650600      -2.53718900      -0.04251900
C       -4.14755200       1.18263100      -0.40273700
C       -5.72655900      -0.91958900      -1.45389800
H       -6.31440700      -1.72064200      -1.89068500
C       -6.33012900       0.16588800      -0.86090500
H       -7.41099600       0.23482100      -0.80213700
C       -5.54250700       1.22251500      -0.36678000
H       -6.02296200       2.10843100       0.03475700
H        4.20864900      -3.18037700       1.84006800
C        1.61478000      -3.11038200       1.94983500
C       -3.47564400       2.38349300      -0.01578600
N        1.07627200      -3.72019700       2.77881600
N       -3.09201300       3.44848000       0.24663100
