59
Properties=species:S:1:pos:R:3 pbc="F F F"
Si      -0.51514000       0.71529900       1.25563600
O        1.05299200       0.83113100       0.13836000
C        2.15440600       1.40096800       0.36791400
C        3.14964800       1.56322000      -0.66034200
H        2.40215200       1.70142700       1.38948500
C        2.88710200       1.24468300      -2.01091200
C        4.43004800       2.00966600      -0.27186400
C        3.90053700       1.36299000      -2.95170500
H        1.89180700       0.92382300      -2.29960300
C        5.44275200       2.11748400      -1.22025300
H        4.61544000       2.25912900       0.76947900
C        5.17781600       1.79398400      -2.55682200
H        3.70705300       1.12667200      -3.99370700
H        6.43204600       2.45433000      -0.92648100
H        5.96716700       1.88266000      -3.29812500
C        1.18028900       4.24669600       0.50404200
C        0.17088700       3.47446100       0.84420000
H        1.87697400       4.62616600       1.25071600
H        1.32774100       4.56026700      -0.52866900
C       -0.75979900       2.62475900       1.16007700
H       -1.75560600       2.97993400       1.41883800
Cl       0.68172800       0.72991400       3.12586200
Cl      -2.43013500       0.25528800       2.26676900
O       -1.38507900       0.59338300      -0.53438600
O       -0.26630100      -1.20228500       1.11532500
C       -1.75272300      -1.62409700      -1.08333600
C       -0.28887900      -1.81386300      -1.11462200
C        1.73569400      -1.99628200       0.14680400
C       -3.60416900      -0.12825000      -0.85804900
C       -4.49471900      -1.23933500      -1.01018200
C       -2.60445700      -2.70707700      -1.33322700
C       -3.96681500      -2.52776300      -1.24798500
C        0.37986600      -2.15401400      -2.29893800
C        1.75330200      -2.26670600      -2.28931500
C        2.46292800      -2.18861600      -1.06874500
H       -2.16496700      -3.67538600      -1.53964400
H       -4.64475200      -3.36589900      -1.37136200
H       -0.19678100      -2.25105300      -3.21081200
H        2.30071900      -2.42910300      -3.21212300
N       -2.24239500      -0.39326200      -0.81787300
N        0.38987000      -1.68404200       0.04323300
C        2.39856300      -2.13022400       1.39980100
C        3.87521100      -2.31333900      -1.01155600
H        4.42239700      -2.42652900      -1.94176900
C        3.78814800      -2.25866300       1.40008900
C        4.52760900      -2.30022600       0.20156200
H        5.60828900      -2.38055600       0.24723200
C       -4.13707200       1.19097700      -0.77886400
C       -5.89519100      -1.02135800      -0.94014700
H       -6.55487500      -1.87789400      -1.03557000
C       -6.39818600       0.24803400      -0.76605200
H       -7.46809300       0.41526400      -0.70353100
C       -5.52258700       1.34894000      -0.71920900
H       -5.92559200       2.35438900      -0.66032700
H        4.29812500      -2.36863900       2.35122300
C        1.71516200      -2.34521600       2.63788000
C       -3.37032600       2.39212100      -0.89033400
N        1.26258800      -2.66047600       3.66006800
N       -2.89970700       3.44161100      -1.05582100
