59
Properties=species:S:1:pos:R:3 pbc="F F F"
Si      -0.38516000      -1.26885800       0.71129500
O        1.26081100      -2.28008300       0.37288900
C        2.18128800      -1.88722900      -0.39479300
C        3.45904600      -2.53522500      -0.48479800
H        2.00392200      -1.02880900      -1.05477700
C        3.79020800      -3.65485300       0.31221000
C        4.39353800      -2.01109400      -1.40559900
C        5.04361100      -4.23544800       0.18291300
H        3.06092600      -4.04412100       1.01535600
C        5.64717600      -2.60144400      -1.52731600
H        4.12446800      -1.14759500      -2.00891300
C        5.96983100      -3.71009600      -0.73445800
H        5.31076700      -5.09562600       0.78912100
H        6.37133600      -2.20555100      -2.23235000
H        6.94914800      -4.17111500      -0.82898300
C        3.18891200       0.32731900       1.60158600
C        1.89196500       0.17704000       1.67295800
H        3.63802300       1.02441200       0.89735800
H        3.85279300      -0.23432700       2.25682100
C        0.59880800      -0.01258300       1.71324600
H       -0.00306500       0.61035200       2.37337800
Cl      -0.80274500      -1.38379100      -1.36074600
Cl      -1.13200500      -2.88836800       1.78601400
O       -1.97017100      -0.17986300       1.06653800
O        0.31229600       1.82446400      -1.75381600
C       -2.10636700       1.49887000      -0.55547900
C       -0.99097500       2.19306800       0.11037900
C        1.25065600       3.02104600       0.00152600
C       -3.83568300      -0.16100400      -0.35916500
C       -4.37271400       0.26470500      -1.61239500
C       -2.65996600       1.96396800      -1.75825800
C       -3.74889200       1.32891800      -2.30610400
C       -1.16519900       2.77225700       1.38071000
C       -0.16290200       3.51372200       1.95211300
C        1.07433600       3.64346400       1.27175500
H       -2.19036300       2.81223800      -2.23928500
H       -4.15915000       1.65114100      -3.25786700
H       -2.11679600       2.62741900       1.87921100
H       -0.29512900       3.98855700       2.91794500
N       -2.64587200       0.41720300       0.06186500
N        0.17374400       2.33640500      -0.59253600
C        2.51561200       3.07221500      -0.64945200
C        2.15766000       4.36489700       1.83473500
H        2.01158700       4.84409100       2.79797500
C        3.55268900       3.79123800      -0.05010600
C        3.36867400       4.44734400       1.18032700
H        4.19338100       5.00126900       1.61658400
C       -4.52781500      -1.13935500       0.41043900
C       -5.52501800      -0.38155800      -2.12618700
H       -5.91218800      -0.05599900      -3.08648400
C       -6.14056400      -1.38881700      -1.41472800
H       -7.01804800      -1.88823600      -1.81126600
C       -5.66153200      -1.74212900      -0.14029300
H       -6.19556300      -2.47794500       0.45162500
H        4.51804500       3.82499100      -0.54397100
C        2.83957600       2.36897700      -1.85540300
C       -4.24137800      -1.43503200       1.78047000
N        3.30114900       1.83464100      -2.78072800
N       -4.17074800      -1.68534300       2.91296500
