59
Properties=species:S:1:pos:R:3 pbc="F F F"
Si       0.66677700      -1.35544800       0.49509700
O       -0.91634800      -0.91834400      -0.66966900
C       -2.11056200      -1.25626700      -0.50318000
C       -3.17988200      -0.79189200      -1.34719200
H       -2.37116500      -1.91634000       0.33295900
C       -2.95499900       0.07533000      -2.44030400
C       -4.49090700      -1.20011900      -1.02083400
C       -4.03406700       0.52176500      -3.18969800
H       -1.94143600       0.38115600      -2.67894000
C       -5.56676600      -0.74673600      -1.77748400
H       -4.64700600      -1.86052000      -0.17182100
C       -5.33678200       0.11183000      -2.85914900
H       -3.87395300       1.18680000      -4.03283100
H       -6.57761000      -1.05582400      -1.53103000
H       -6.17588800       0.46641000      -3.45127900
C       -1.48895800      -4.66730300       1.32915800
C       -0.90171500      -3.52089100       1.57207400
H       -2.54084500      -4.71751100       1.04922700
H       -0.94247000      -5.60679800       1.40124400
C       -0.31483600      -2.37463500       1.78277700
H       -0.32132600      -1.95783800       2.78830600
Cl       2.51887700      -1.35151500       1.71542700
Cl       1.17279600      -2.94865300      -0.88869400
O        1.39166600      -0.07542200      -0.76130600
O        0.04175700       0.29511700       1.55300200
C        1.71015000       1.97558600       0.26023800
C        0.24645400       2.16077900       0.20923300
C       -1.90444000       1.50470400       1.01551500
C        3.59700900       0.72010000      -0.50470500
C        4.46021100       1.61457400       0.20317800
C        2.54034700       2.93312500       0.85458300
C        3.90137800       2.71556400       0.88917000
C       -0.31533600       3.18671800      -0.56353700
C       -1.68481100       3.29623200      -0.64829800
C       -2.50763100       2.45741900       0.13800400
H        2.08478700       3.79703000       1.32357000
H        4.55711600       3.39792300       1.41978000
H        0.34826700       3.83479600      -1.12326800
H       -2.14532600       4.02673000      -1.30477700
N        2.23181900       0.87806000      -0.32742000
N       -0.52974400       1.31992600       0.92566000
C       -2.71546300       0.78197000       1.93791400
C       -3.92239800       2.54735400       0.08612600
H       -4.36787400       3.25238900      -0.60816900
C       -4.10272000       0.91913300       1.85465200
C       -4.70539300       1.76415100       0.90515400
H       -5.78698000       1.82369400       0.85609300
C        4.15520900      -0.25777200      -1.37648000
C        5.86084800       1.38883200       0.17338700
H        6.50311500       2.05770800       0.73748300
C        6.38540600       0.35464400      -0.56937300
H        7.45471600       0.17348800      -0.58570300
C        5.53952300      -0.43283900      -1.37468800
H        5.96884500      -1.17096000      -2.04392100
H       -4.72051800       0.37386300       2.56003200
C       -2.20835800       0.03862000       3.04869200
C        3.41814500      -0.92896800      -2.40143000
N       -1.93635100      -0.51396600       4.03408500
N        2.95623200      -1.42172300      -3.34661100
