77
Properties=species:S:1:pos:R:3 pbc="F F F"
Si       0.30190300      -0.38377200      -1.22356100
O       -0.85944700       1.05933700      -0.59916700
C       -0.48863100       2.19643100      -0.20972200
C       -1.43421200       3.23456600       0.11101000
H        0.57728400       2.39702600      -0.05978800
C       -2.82424200       3.04446900      -0.05042300
C       -0.93701400       4.45328500       0.61907300
C       -3.69877200       4.06497700       0.29652100
H       -3.19118200       2.10354400      -0.44620200
C       -1.82108900       5.47013600       0.96614400
H        0.13563000       4.58752000       0.73143900
C       -3.19902700       5.27508400       0.80411700
H       -4.76921800       3.92802100       0.17693400
H       -1.44603700       6.41078300       1.35741700
H       -3.88940200       6.06998600       1.07254600
C        0.72535400       3.28674400      -2.87660900
C        1.07594900       2.04717400      -2.61311300
H        1.08765900       4.11543900      -2.27009800
H        0.08506600       3.52467400      -3.72553200
C        1.36060400       0.81610600      -2.30522000
H        2.26289200       0.36569100      -2.71601700
Cl      -1.19437700      -0.77696400      -2.80876000
Cl       1.52529700      -2.19893300      -1.64216000
O        1.39421000       0.10531400       0.29962400
O       -0.71250500      -1.48484900      -0.02524900
C        1.01777600      -1.35520600       2.03257700
C       -0.34099900      -0.78535600       2.13732000
C       -2.55278800      -0.61053400       1.20959900
C        3.22216700      -1.17682600       1.08519700
C        3.59595500      -2.34572000       1.83619400
C        1.40896600      -2.40775100       2.86822400
C        2.67132000      -2.93816800       2.72424300
C       -0.72455400      -0.08859500       3.29131500
C       -1.97071400       0.49495900       3.33540000
C       -2.90479900       0.25530600       2.30309000
H        0.68712200      -2.81466500       3.56598700
H        2.97407800      -3.80918000       3.29678400
H       -0.00169100       0.03266200       4.08900600
H       -2.25607400       1.12854700       4.16922100
C       -4.19604800       0.83461300       2.34093800
C       -3.55120000      -1.06509100       0.29631000
N        1.87689800      -0.81324600       1.14566200
N       -1.20345800      -0.96200000       1.11533600
C        4.19763900      -0.46015300       0.32766000
C        4.89791200      -2.88203800       1.68386100
C        5.79739100      -2.26836000       0.84283500
C        5.45142200      -1.05886400       0.20917700
C        4.04467800       0.91307300      -0.21562500
H        5.16139900      -3.77148400       2.24738900
H        6.79401600      -2.67645000       0.70729300
H        6.21174900      -0.52978800      -0.35657900
C       -5.10902200       0.53169700       1.35624500
C       -4.79450600      -0.43595900       0.38305200
C       -3.43522300      -2.25526400      -0.57907700
H       -4.44269400       1.50174400       3.16064100
H       -6.09763300       0.97968500       1.36353500
H       -5.57598900      -0.76691000      -0.29341900
C        4.54207000       1.22517200      -1.49049000
C        3.52160600       1.94754600       0.57812400
C        3.96429000       3.55394400      -1.17944500
C        3.47894100       3.25566000       0.09879900
C        4.49836700       2.53481100      -1.97069800
H        4.86925900       2.75469800      -2.96784400
H        3.92453800       4.57275800      -1.55466600
H        3.07932000       4.04616700       0.72866300
H        3.15855800       1.72751600       1.57758900
C       -2.83306500      -3.43164300      -0.10322400
C       -4.04694700      -2.27270500      -1.84307200
C       -3.43776600      -4.59618600      -2.13787600
C       -4.04563600      -3.43193100      -2.61767100
C       -2.83368700      -4.59194900      -0.87602100
H       -2.37419400      -3.44270600       0.88065200
H       -2.36524100      -5.49391800      -0.49152300
H       -3.43332200      -5.49941100      -2.74203400
H       -4.50853300      -3.42256500      -3.60066100
H       -4.49881600      -1.36475600      -2.23060300
H        4.94222100       0.43202500      -2.11573200
