77
Properties=species:S:1:pos:R:3 pbc="F F F"
Si       0.24291400      -0.57289500      -0.51711500
O       -1.57968000      -1.34452900      -0.65992100
C       -2.23938900      -1.89864500       0.24836400
C       -3.42518600      -2.67321800      -0.01237100
H       -1.89731300      -1.81895700       1.28761500
C       -3.96791100      -2.79619500      -1.30965300
C       -4.04254900      -3.31462700       1.08103700
C       -5.12269400      -3.54350100      -1.49866600
H       -3.47931000      -2.29727700      -2.14022800
C       -5.19388200      -4.06949800       0.88202900
H       -3.61511500      -3.20631000       2.07391000
C       -5.73505500      -4.17805300      -0.40509700
H       -5.55333400      -3.63951700      -2.49078200
H       -5.67376300      -4.56681000       1.71928300
H       -6.63868400      -4.76112100      -0.56062800
C        0.35454500      -0.48020800       3.60258000
C        0.46189100      -0.96421200       2.38911700
H        1.20327100      -0.01949700       4.10459200
H       -0.58878500      -0.52429000       4.14487000
C        0.56566400      -1.45149900       1.18167100
H        0.85917000      -2.49881800       1.09142900
Cl      -0.26061900       0.45919000      -2.45261500
Cl       0.95067100      -2.35942500      -1.65694400
O       -0.51009400       0.88552800       0.45811800
O        1.91002600       0.31028100      -0.60479400
C        0.92020300       2.67264000       0.20392800
C        1.90841300       1.93570600       1.02160900
C        3.42506800       0.07812600       1.21222800
C       -1.35732200       2.86085800      -0.54455000
C       -0.98735100       4.05785200      -1.25037700
C        1.25201800       3.91346200      -0.35084500
C        0.32438200       4.56564700      -1.13231300
C        2.29838000       2.44071500       2.26643800
C        3.13663000       1.68760300       3.05771500
C        3.69568100       0.48911200       2.56435800
H        2.25357700       4.29811300      -0.20110300
H        0.58572800       5.48096900      -1.65404900
H        1.86816100       3.37449200       2.60720900
H        3.37587300       2.00458500       4.06796000
C        4.52461000      -0.31661300       3.38146700
C        4.14933800      -1.00513600       0.62691500
N       -0.31577700       2.14972900       0.04878300
N        2.42688000       0.78530800       0.54530900
C       -2.72259300       2.44754000      -0.48821400
C       -1.95064300       4.71753500      -2.05225300
C       -3.23364300       4.22628000      -2.12283000
C       -3.61011700       3.13473600      -1.31605300
C       -3.29987300       1.49622200       0.49335600
H       -1.65211400       5.61000800      -2.59294000
H       -3.97850100       4.71264700      -2.74471000
H       -4.65687100       2.85013700      -1.28412000
C        5.08263000      -1.46468200       2.86629200
C        4.92466600      -1.76819000       1.49984100
C        4.28042600      -1.26885400      -0.82578200
H        4.70797900      -0.00308100       4.40423000
H        5.70446600      -2.10260800       3.48642100
H        5.48645600      -2.59767500       1.08202600
C       -4.35903300       0.65045200       0.12279300
C       -2.91565000       1.54186000       1.84465000
C       -4.63320700      -0.06639200       2.41834500
C       -3.57269200       0.76405800       2.79682500
C       -5.02284800      -0.11928800       1.07783400
H       -5.82997300      -0.77687800       0.76953300
H       -5.14653000      -0.67113000       3.16076600
H       -3.26405100       0.81586500       3.83737500
H       -2.11090200       2.20136700       2.15255600
C        4.49902100      -0.20930700      -1.72211300
C        4.32928900      -2.58578700      -1.30966900
C        4.78513800      -1.77709000      -3.54459200
C        4.57604400      -2.83812300      -2.65892400
C        4.74830700      -0.46107000      -3.07006900
H        4.48687200       0.81383300      -1.35863200
H        4.91820400       0.36961900      -3.74976800
H        4.97472800      -1.97261700      -4.59659500
H        4.59299700      -3.86279400      -3.02009900
H        4.14532700      -3.41179900      -0.62931200
H       -4.65321200       0.58726700      -0.92067100
