77
Properties=species:S:1:pos:R:3 pbc="F F F"
Si       0.19308900      -0.45168600      -0.27091400
O       -1.55814100      -1.08500300       0.14195100
C       -2.27902700      -1.78808500      -0.61117700
C       -3.38969900      -2.55226000      -0.11200200
H       -2.07173200      -1.80714700      -1.68655300
C       -3.61180400      -2.71724400       1.27253400
C       -4.25537300      -3.15428600      -1.04907600
C       -4.68867100      -3.47743200       1.70556200
H       -2.93339300      -2.25034200       1.97769500
C       -5.34431400      -3.89877600      -0.60572200
H       -4.06611500      -3.02601500      -2.11174200
C       -5.55720100      -4.06164200       0.76925000
H       -4.86439500      -3.61672400       2.76796200
H       -6.02042300      -4.35756100      -1.32053400
H       -6.40186500      -4.65091500       1.11572600
C       -0.37810100      -4.40381400      -0.84168300
C        0.20832100      -3.24132200      -1.02046900
H       -1.22384700      -4.71452900      -1.45418500
H       -0.02914400      -5.10159500      -0.08063900
C        0.74726700      -2.06490900      -1.15636400
H        1.57924700      -1.93481300      -1.84600300
Cl      -0.48121300       0.36526500      -2.32472400
Cl       0.72110700      -1.14053500       1.81767200
O       -0.38953500       1.14352200       0.56394800
O        1.87893100       0.33392500      -0.56842500
C        1.06925400       2.82798200      -0.01494500
C        2.10027600       2.15953000       0.80483600
C        3.60410300       0.29621100       1.07093100
C       -1.24247200       2.99990300      -0.66039900
C       -0.88013500       4.10225300      -1.51222800
C        1.40114400       3.98875200      -0.72351200
C        0.44711900       4.58062100      -1.51936000
C        2.64901300       2.82526400       1.90663100
C        3.59614000       2.18149300       2.66904900
C        4.08553600       0.91647000       2.27888800
H        2.42017100       4.35305600      -0.67466200
H        0.69998500       5.42558200      -2.15202700
H        2.27253200       3.80870400       2.16065400
H        3.98263200       2.64000200       3.57371800
C        5.05480400       0.25264200       3.06980800
C        4.20683300      -0.90824300       0.59393200
N       -0.18569200       2.33125000      -0.04117000
N        2.53273000       0.93381400       0.44295500
C       -2.61366800       2.63738300      -0.49936600
C       -1.86526100       4.70557100      -2.33125400
C       -3.16352800       4.25398200      -2.28460000
C       -3.52401700       3.26361700      -1.35096900
C       -3.17292400       1.78750700       0.57988800
H       -1.56999300       5.52617300      -2.97741100
H       -3.92707600       4.69751300      -2.91583500
H       -4.57359800       3.01081900      -1.24015500
C        5.54490900      -0.96856200       2.67032500
C        5.14125800      -1.51134700       1.43598400
C        4.02674500      -1.51652400      -0.74782700
H        5.39552600       0.73318900       3.98151600
H        6.27928100      -1.49470100       3.27201600
H        5.61422900      -2.42435300       1.08856300
C       -4.22531400       0.90016900       0.30083700
C       -2.77482000       1.96705600       1.91482400
C       -4.45730000       0.38937300       2.65373800
C       -3.40983200       1.27084000       2.94227800
C       -4.86311800       0.20771800       1.32912800
H       -5.66497700      -0.48530700       1.09369400
H       -4.94937700      -0.15517500       3.45494900
H       -3.09123100       1.42193500       3.97012300
H       -1.97571000       2.66336100       2.14954100
C        4.11645400      -0.73963300      -1.91411700
C        3.88007000      -2.90781200      -0.86815000
C        3.87438700      -2.72537100      -3.28051400
C        3.80359200      -3.50843600      -2.12538000
C        4.03541800      -1.33876700      -3.17017500
H        4.24960900       0.33488800      -1.83501300
H        4.09989800      -0.72439700      -4.06398400
H        3.80439200      -3.18950700      -4.26044800
H        3.66836500      -4.58367800      -2.20078900
H        3.79223300      -3.51346100       0.02889900
H       -4.53233700       0.74396600      -0.72947700
