57
Properties=species:S:1:pos:R:3 pbc="F F F"
Si       0.35325700      -1.93056900       0.72589900
O       -1.27940000      -1.11364100      -0.02677700
C       -2.39433100      -1.66269700      -0.19607400
C       -3.48515400      -0.98596400      -0.84994000
H       -2.56484500      -2.66774600       0.20517600
C       -3.33422200       0.30906600      -1.39500900
C       -4.73530000      -1.63742000      -0.90430900
C       -4.42571900       0.94216700      -1.97137600
H       -2.36367400       0.79159600      -1.36245500
C       -5.82526500      -0.99570500      -1.48578100
H       -4.83663300      -2.63523800      -0.48569600
C       -5.67033000       0.29174000      -2.01454900
H       -4.31909000       1.93851700      -2.38934800
H       -6.79077200      -1.49002300      -1.52820200
H       -6.52195500       0.79304900      -2.46614700
C       -1.40263700      -3.72189300      -2.46052100
C       -0.60884500      -3.64668400      -1.41585100
H       -2.43749700      -4.04838900      -2.36248400
H       -1.04532400      -3.48463800      -3.46203500
C        0.14385800      -3.51358100      -0.36025000
H        0.73952600      -4.36284400      -0.02208200
Cl      -0.86721300      -2.76135600       2.44406000
Cl       2.32228400      -2.54038300       1.57605200
O        1.12033000      -1.01079700      -0.73876600
O        0.55008200      -0.34124700       1.71351800
C        1.95390700       1.11893100      -0.11398600
C        0.60158300       1.52943300       0.28730300
C       -1.23495400       1.12709800       1.76399700
C        3.37658800      -0.61623900      -0.92914100
C        4.49556800       0.23303900      -0.89614600
C        3.01612300       1.99028800      -0.06832300
C        4.31548600       1.58834900      -0.46063200
C       -0.01164500       2.66175400      -0.19519000
C       -1.28606500       3.06089100       0.27512300
C       -1.90665000       2.26944600       1.30094600
H        2.84505000       2.99625800       0.29873100
C        5.43352400       2.45448500      -0.42641100
H        0.49002200       3.23731300      -0.96543500
C       -1.97586600       4.18614700      -0.23473100
C       -3.18904900       2.62154800       1.79415800
H       -1.63570100       0.45526600       2.51291400
N        2.16839700      -0.17735900      -0.57165900
N       -0.05100200       0.78200500       1.25766900
H        3.41858300      -1.64580800      -1.25881500
C        5.78020300      -0.22373600      -1.28615300
C        6.67548500       1.98675500      -0.81244000
C        6.85014600       0.64651900      -1.24212200
H        5.90445300      -1.25159700      -1.61300500
H        5.30111100       3.47994300      -0.09508700
H        7.53347200       2.65193400      -0.78618400
H        7.83751900       0.30524500      -1.53750100
C       -3.22833300       4.50318300       0.25529400
C       -3.83601500       3.72133500       1.27108300
H       -3.64713800       2.01427500       2.56871200
H       -1.51103800       4.78591600      -1.01132100
H       -3.75904400       5.36396100      -0.14041100
H       -4.82123100       3.99395200       1.63650100
