57
Properties=species:S:1:pos:R:3 pbc="F F F"
Si       0.76642400      -0.53430100       0.87023400
O        2.51582900      -0.09467600       0.18567200
C        3.61351500      -0.67033000       0.39544600
C        4.80098600      -0.36007200      -0.36202800
H        3.68556500      -1.41094800       1.19759200
C        4.79392400       0.58493100      -1.41190200
C        5.99324000      -1.03399400      -0.02268300
C        5.96751200       0.84527200      -2.10710400
H        3.86929900       1.09462900      -1.66334600
C        7.16518200      -0.76641000      -0.72430300
H        5.98479900      -1.76116300       0.78513000
C        7.15117500       0.17117100      -1.76434100
H        5.97214000       1.56979700      -2.91599000
H        8.08527100      -1.28216900      -0.46715500
H        8.06562200       0.37982000      -2.31289800
C        2.78745300      -3.45616000      -0.93733200
C        1.69296500      -2.77419000      -0.68919900
H        3.04455100      -4.34197100      -0.35759100
H        3.45926600      -3.16949800      -1.74541700
C        0.67541900      -2.02127600      -0.38539300
H       -0.26447300      -2.19407500      -0.90930500
Cl       1.00542600       1.32188400       2.13323400
Cl       1.50950200      -1.81263700       2.57477600
O        0.10126300       0.49025400      -0.58384600
O       -0.98092400      -0.64129600       1.52747000
C       -2.11437700       1.19907900      -0.19411000
C       -2.54503600      -0.20701800      -0.18741200
C       -2.32677900      -2.37255600       0.80678200
C       -0.31728400       2.75395100      -0.43190000
C       -1.19494800       3.84530300      -0.31771100
C       -3.01427200       2.23262800      -0.07911200
C       -2.59431900       3.58323500      -0.13747600
C       -3.57866300      -0.65953100      -0.97415800
C       -4.03199300      -1.99831700      -0.89878700
C       -3.37837000      -2.88050800       0.02689100
H       -4.06109800       1.99495800       0.07495900
C       -3.48819900       4.67340400      -0.01763600
H       -4.03968200       0.03185600      -1.67053800
C       -5.08955400      -2.49858800      -1.69452200
C       -3.79275200      -4.23267900       0.13605100
H       -1.77912000      -2.96208200       1.53111300
N       -0.77008300       1.50083100      -0.38332400
N       -1.94402800      -1.09862100       0.69516400
H        0.74963500       2.85901000      -0.57690200
C       -0.72311200       5.18125500      -0.37484400
C       -3.00465600       5.96678900      -0.07675600
C       -1.62100300       6.22211900      -0.25503400
H        0.33803200       5.36668500      -0.50980000
H       -4.54740000       4.47930300       0.12125800
H       -3.69125200       6.80308400       0.01575300
H       -1.26868900       7.24822100      -0.29558800
C       -5.47562000      -3.81966100      -1.57001700
C       -4.82723200      -4.68814900      -0.65484500
H       -3.29047900      -4.89031000       0.83882900
H       -5.58706700      -1.83543300      -2.39553600
H       -6.28731200      -4.20305700      -2.18105700
H       -5.15111100      -5.72155300      -0.57958900
