57
Properties=species:S:1:pos:R:3 pbc="F F F"
Si       0.68266000      -0.72056500       1.13257300
O        2.54907700      -0.65625100       0.64415500
C        3.07100200      -0.34800600      -0.45688100
C        4.46830300      -0.57068000      -0.73398000
H        2.46229100       0.13203200      -1.22870800
C        5.32588300      -1.18250000       0.20714300
C        4.96740500      -0.16043100      -1.98847400
C        6.66311200      -1.37796900      -0.11218900
H        4.92707000      -1.49358700       1.16731000
C        6.30905400      -0.35945000      -2.29947400
H        4.29485400       0.30385300      -2.70536800
C        7.15401100      -0.96775700      -1.36240800
H        7.33033600      -1.84838400       0.60369500
H        6.69911600      -0.04757600      -3.26345900
H        8.20137200      -1.12481300      -1.60529200
C        1.77692000      -2.67538000      -2.19079000
C        1.07212000      -2.52886900      -1.09093900
H        1.39149700      -2.35864300      -3.15927200
H        2.75955900      -3.14526900      -2.16954100
C        0.45529400      -2.30582400       0.03321500
H       -0.18874600      -3.08619800       0.43961000
Cl       1.10146800       1.14507800       2.32280300
Cl       1.18038300      -2.00253800       2.90930200
O        0.25269500       0.31869900      -0.41235000
O       -1.10360500      -0.55915000       1.66862600
C       -1.84404100       1.35455500      -0.18442900
C       -2.46494500       0.02175900      -0.17520600
C       -2.62674300      -2.11049100       0.89134400
C        0.16801500       2.62921800      -0.35993800
C       -0.54899000       3.83684400      -0.32021000
C       -2.59072100       2.50801400      -0.14080800
C       -1.97861200       3.78279600      -0.20673600
C       -3.49190100      -0.31296100      -1.02667900
C       -4.13225200      -1.57293400      -0.95172000
C       -3.67876000      -2.50000200       0.04672100
H       -3.66683700       2.42683700      -0.03666200
C       -2.71105100       4.99210800      -0.15562700
H       -3.80014700       0.40987100      -1.77384700
C       -5.18932600      -1.95250000      -1.81215200
C       -4.28745900      -3.77588000       0.16297200
H       -2.22958500      -2.73644500       1.68042500
N       -0.46232100       1.45515800      -0.30376400
N       -2.05724800      -0.91000700       0.77328500
H        1.24503500       2.58292100      -0.44573700
C        0.11236700       5.08954500      -0.37964600
C       -2.04392100       6.20111200      -0.21500400
C       -0.63091400       6.25085100      -0.32664700
H        1.19450800       5.11846200      -0.46136800
H       -3.79270600       4.95464000      -0.06766800
H       -2.60615700       7.12924200      -0.17380800
H       -0.13267700       7.21450600      -0.36845400
C       -5.76628400      -3.20129200      -1.67978700
C       -5.31545600      -4.11449400      -0.69235000
H       -3.93702700      -4.46957700       0.92108300
H       -5.53678600      -1.25497600      -2.56830700
H       -6.57783400      -3.49183800      -2.34026600
H       -5.78685700      -5.08906000      -0.61218900
