57
Properties=species:S:1:pos:R:3 pbc="F F F"
Si       0.49598800      -1.08821300       0.84806500
O        2.23492800      -1.49994900       0.14951500
C        2.96151700      -0.81999200      -0.61725500
C        4.33369600      -1.16185700      -0.88989500
H        2.53565700       0.04082800      -1.14194000
C        4.96809500      -2.25911800      -0.26622200
C        5.04111900      -0.36007600      -1.81070000
C        6.29458700      -2.54005000      -0.56470800
H        4.41044800      -2.86611500       0.43972400
C        6.36948300      -0.65059800      -2.10524800
H        4.53944500       0.48113200      -2.28238000
C        6.99410600      -1.73816400      -1.48162500
H        6.79294800      -3.37990300      -0.09014800
H        6.91913600      -0.03808500      -2.81325500
H        8.03207100      -1.96465500      -1.70944900
C        3.56934300       1.41803200       1.51616700
C        2.39635300       0.89111900       1.79109000
H        3.66344900       2.33337100       0.93299000
H        4.48837000       0.97347900       1.89589700
C        1.25762400       0.29108000       1.98355600
H        0.66741000       0.53933900       2.86727900
Cl      -0.24992200      -2.65608500      -0.58773200
Cl       0.77387300      -2.63025600       2.46015900
O       -1.19490500      -0.64446700       1.50383900
O        0.18130600       0.10565700      -0.61834400
C       -2.53444300       0.35791600      -0.15485600
C       -1.64086500       1.52445800      -0.12763800
C        0.57989000       2.36868400      -0.35604700
C       -3.06311400      -1.78133600       0.77110600
C       -4.23174100      -1.86960700      -0.00292800
C       -3.66716700       0.31887200      -0.93273000
C       -4.55182100      -0.78511600      -0.88712200
C       -2.12091400       2.80010900       0.05273800
C       -1.25999600       3.92334100       0.02903100
C        0.14015600       3.69192000      -0.18212200
H       -3.86857000       1.15112800      -1.59796100
C       -5.72330800      -0.86417300      -1.67594800
H       -3.18234200       2.93330900       0.23019600
C       -1.71907500       5.24901100       0.21117300
C        1.04452300       4.78407100      -0.21097200
H        1.61458700       2.10941200      -0.52920200
N       -2.27258600      -0.71041200       0.69391000
N       -0.27767300       1.34709500      -0.34509100
H       -2.74465800      -2.54837000       1.46475700
C       -5.08310100      -3.00129900       0.07239300
C       -6.53808700      -1.97678700      -1.58453700
C       -6.21803000      -3.04720100      -0.71080100
H       -4.82880900      -3.81675500       0.74248600
H       -5.96794100      -0.04625000      -2.34675100
H       -7.43714800      -2.03700200      -2.19060400
H       -6.87489900      -3.91013500      -0.66137500
C       -0.81853000       6.29690200       0.18106100
C        0.56446000       6.06512800      -0.03084300
H        2.10194100       4.60127200      -0.37563300
H       -2.77790300       5.42699100       0.37241800
H       -1.17111700       7.31440100       0.32101100
H        1.24954800       6.90704200      -0.05073700
