63
Properties=species:S:1:pos:R:3 pbc="F F F"
Si       0.78533000      -0.97515400       0.77899100
O        2.45089900      -1.13240000      -0.17825400
C        3.59602400      -1.18849100       0.33700200
C        4.79932300      -1.20574300      -0.45295300
H        3.69113100      -1.25404900       1.42629500
C        4.77008900      -1.13936100      -1.86420400
C        6.03140600      -1.29685500       0.22926700
C        5.96295200      -1.16059900      -2.57375300
H        3.81464900      -1.07477500      -2.37482800
C        7.22222600      -1.31748700      -0.49051100
H        6.03799900      -1.35049300       1.31468600
C        7.18647500      -1.24857000      -1.88867400
H        5.95262800      -1.11154800      -3.65840700
H        8.17320800      -1.38830700       0.02821200
H        8.11579300      -1.26551700      -2.45142200
C        3.61695900       1.90470900       1.30157300
C        2.49944000       1.26317000       1.55679200
H        4.55826800       1.60766800       1.76247000
H        3.63714200       2.76901400       0.63847200
C        1.40952600       0.57860500       1.76327000
H        0.76245800       0.87850600       2.58992500
Cl       0.17119000      -2.77458300      -0.42518000
Cl       1.42355900      -2.33006100       2.48989100
O       -0.90145100      -0.71877100       1.55535000
O        0.19938700      -0.00315900      -0.74473600
C       -2.41223500       0.03924900      -0.08820500
C       -1.64364500       1.30337700      -0.08231900
C        0.46425200       2.28598500      -0.64653000
C       -2.64604900      -2.09675600       0.96840800
C       -3.79806600      -2.37401400       0.21624200
C       -3.51203100      -0.18677700      -0.89689300
C       -4.24248800      -1.41214700      -0.74910200
C       -2.18313300       2.53281700       0.25074400
C       -1.37790000       3.70948700       0.09351400
C       -0.03505800       3.57288800      -0.38883900
C       -5.39499400      -1.71890900      -1.51238900
C       -1.85310900       5.01145600       0.38222000
C        0.78643700       4.71379300      -0.57297600
H        1.47802600       2.08838800      -0.96768900
N       -2.00622000      -0.94404400       0.80980900
N       -0.31673400       1.22255800      -0.49646600
H       -2.21959900      -2.77993400       1.69056300
C       -4.49256300      -3.59771600       0.39245000
C       -6.06127700      -2.91621500      -1.32197900
C       -5.61097900      -3.86169900      -0.36979100
H       -4.12948900      -4.31209900       1.12512100
H       -5.76083300      -1.01154800      -2.24740300
H       -6.94454200      -3.13579600      -1.91455500
H       -6.14901100      -4.79600500      -0.24286000
C       -1.03548200       6.11178600       0.19624200
C        0.28825800       5.96663900      -0.28298800
H        1.79950500       4.58349900      -0.94099200
H       -2.86453300       5.14837400       0.74627300
H       -1.41545700       7.10406900       0.42071200
H        0.91026100       6.84564100      -0.42097100
C       -3.94744100       0.81932900      -1.92785500
H       -4.92006200       1.24715200      -1.65772200
H       -3.22909300       1.63152200      -2.04129500
H       -4.06536500       0.32341400      -2.89698200
C       -3.59012400       2.65301500       0.77093700
H       -3.59072500       3.23099500       1.70123600
H       -4.22009300       3.18891600       0.05132600
H       -4.03837100       1.67926900       0.96938200
