63
Properties=species:S:1:pos:R:3 pbc="F F F"
Si       0.95453000      -0.66574200       0.75187500
O        2.62367900      -0.27770500      -0.15330100
C        3.56731900      -1.09449600      -0.30083300
C        4.85461800      -0.70771200      -0.81417700
H        3.40797700      -2.14743200      -0.04539800
C        5.15420600       0.63045000      -1.15556700
C        5.83185000      -1.71541500      -0.96206700
C        6.41724200       0.94593800      -1.63694800
H        4.39393500       1.39470900      -1.03083600
C        7.09510100      -1.38981200      -1.44644000
H        5.58762100      -2.73970400      -0.69245500
C        7.38550700      -0.06178000      -1.78236600
H        6.65966600       1.97107000      -1.90024200
H        7.85147600      -2.15987500      -1.56181600
H        8.37213000       0.19349300      -2.15928400
C        4.22318400      -1.61161400       2.90897700
C        2.96496800      -1.71778000       2.54803100
H        5.00535200      -2.19195000       2.42046400
H        4.52311100      -0.95091900       3.72188100
C        1.73214000      -1.76968200       2.12912600
H        1.05056600      -2.50396800       2.56071600
Cl       1.33594900       1.26512000       1.89941100
Cl       0.66441900      -2.52858600      -0.57614000
O        0.20351300       0.22953500      -0.70581800
O       -0.73662900      -0.76112100       1.53868900
C       -1.87742100       1.12960200      -0.05030600
C       -2.38690400      -0.25762000      -0.07629400
C       -2.20128900      -2.42347700       0.92442200
C       -0.01622500       2.52051600      -0.62761900
C       -0.76776200       3.67931400      -0.37798200
C       -2.65272900       2.22577900       0.28495500
C       -2.10659800       3.54060900       0.11447800
C       -3.43906200      -0.66775900      -0.87790900
C       -3.93182000      -2.00792200      -0.74655200
C       -3.29951600      -2.89189500       0.18721700
C       -2.83704800       4.71994200       0.39750400
C       -5.02632000      -2.50327100      -1.49607100
C       -3.75716700      -4.22478200       0.34717900
H       -1.64428000      -3.03436400       1.62171900
N       -0.56347200       1.32228300      -0.46420900
N       -1.78922900      -1.16830000       0.78938300
H        1.01805800       2.53036700      -0.94372900
C       -0.19577300       4.96233200      -0.57062300
C       -2.26258300       5.96258900       0.19854700
C       -0.93854100       6.08865600      -0.28546400
H        0.82297900       5.03854200      -0.93821900
H       -3.85298700       4.65049700       0.76796300
H       -2.83672600       6.85778700       0.41873200
H       -0.50956500       7.07545700      -0.42936300
C       -5.46173400      -3.80445300      -1.32118600
C       -4.82683300      -4.67125800      -0.39979600
H       -3.25601300      -4.87610600       1.05685800
H       -5.52951800      -1.85940800      -2.20744500
H       -6.30432300      -4.16841400      -1.90170400
H       -5.18507100      -5.68949000      -0.28408700
C       -4.04766000       2.06174900       0.82480200
H       -4.78472200       2.44818300       0.11124100
H       -4.28424600       1.01972800       1.04138900
H       -4.15102700       2.64056600       1.74869300
C       -4.06902800       0.25983500      -1.88240900
H       -4.13110400      -0.23967400      -2.85473000
H       -5.09118600       0.51431100      -1.57796900
H       -3.50212000       1.18286300      -2.00478700
