63
Properties=species:S:1:pos:R:3 pbc="F F F"
Si       0.73960200      -1.08023200       0.92118600
O        2.48275300      -1.44427600       0.19554400
C        3.15828000      -0.75277800      -0.60635700
C        4.53550400      -1.04491100      -0.91229800
H        2.68055800       0.07703100      -1.13594900
C        5.22660300      -2.10896400      -0.29150700
C        5.18869500      -0.23052200      -1.86176400
C        6.55442400      -2.34544200      -0.62132200
H        4.71047800      -2.72642900       0.43653600
C        6.51930700      -0.47546300      -2.18648100
H        4.64500600       0.58550200      -2.33111100
C        7.19992700      -1.53076100      -1.56595100
H        7.09537900      -3.16021300      -0.14969800
H        7.02757400       0.14753600      -2.91596900
H        8.23940500      -1.72186900      -1.81804300
C        3.72072700       1.58814800       1.41661800
C        2.56565700       1.03648200       1.71675200
H        3.78951700       2.46340800       0.77161300
H        4.65100800       1.20402900       1.83335300
C        1.44836500       0.40960000       1.94596600
H        0.84338600       0.70127300       2.80610500
Cl       0.05652700      -2.78205700      -0.39048100
Cl       1.15415300      -2.49624000       2.62020800
O       -0.95821300      -0.69097700       1.60397700
O        0.31881300      -0.00949400      -0.61516200
C       -2.34409200       0.09890100      -0.12716800
C       -1.53958200       1.33907000      -0.07333800
C        0.62847100       2.27249600      -0.45502100
C       -2.73646700      -1.99971800       0.95707000
C       -3.85263600      -2.24391600       0.14209100
C       -3.39951200      -0.09943200      -0.99951900
C       -4.19150000      -1.28844100      -0.87168600
C       -2.07290200       2.58247800       0.21854600
C       -1.22971700       3.73952800       0.13820600
C        0.14511300       3.57055700      -0.22755100
C       -5.30707900      -1.56295800      -1.69913200
C       -1.69500700       5.05183800       0.39494800
C        1.00931100       4.69028200      -0.33081500
H        1.65884800       2.06046400      -0.70129500
N       -2.03730600      -0.88034000       0.81207500
N       -0.18486900       1.22483700      -0.37999200
H       -2.38350700      -2.68521300       1.71600600
C       -4.61040300      -3.43211200       0.29958200
C       -6.03690100      -2.72527100      -1.52552500
C       -5.68922300      -3.66611200      -0.52681800
H       -4.32600800      -4.14381300       1.06864500
H       -5.59323900      -0.85771900      -2.47031200
H       -6.89056600      -2.92099900      -2.16775600
H       -6.27484300      -4.57332200      -0.41471600
C       -0.83588800       6.13099200       0.29024200
C        0.52034200       5.95380700      -0.07372100
H        2.04668700       4.53811900      -0.61253300
H       -2.73020600       5.21407600       0.67097700
H       -1.20808700       7.13147300       0.48983400
H        1.17457800       6.81679700      -0.14926400
C       -3.72642000       0.90257700      -2.07340200
H       -4.69629800       1.37335400      -1.87403100
H       -2.96958300       1.68310600      -2.15116800
H       -3.80064300       0.39371500      -3.04023400
C       -3.51480800       2.74095200       0.61988200
H       -3.57777600       3.32695000       1.54275400
H       -4.06701800       3.28692800      -0.15413000
H       -4.00374900       1.78118500       0.78580400
