63
Properties=species:S:1:pos:R:3 pbc="F F F"
Si       0.40634300       2.24412600      -0.59554800
O       -1.39856600       1.48820500      -0.08825500
C       -1.73719800       0.92476600       0.98134900
C       -3.09560900       0.51274800       1.24157700
H       -0.97702300       0.66914500       1.72529300
C       -4.14534300       0.79229500       0.34022400
C       -3.34340800      -0.23742000       2.40987400
C       -5.42295500       0.32146000       0.61113900
H       -3.93887500       1.37105000      -0.55416700
C       -4.62618100      -0.70892800       2.67187900
H       -2.52455400      -0.44696400       3.09338600
C       -5.66316500      -0.42888600       1.77328200
H       -6.23702800       0.53036300      -0.07623600
H       -4.82253000      -1.29044600       3.56741100
H       -6.66502200      -0.79678400       1.97698000
C       -1.36811400       3.45191600       2.79470300
C       -0.59599800       3.61348100       1.74250700
H       -0.96584600       3.10727800       3.74676800
H       -2.43080100       3.68897000       2.75417700
C        0.12421300       3.68208100       0.66085800
H        0.62928700       4.61230000       0.39754600
Cl      -0.69268000       3.27747700      -2.26097200
Cl       2.43017700       2.89507800      -1.24486800
O        1.07848700       1.16385300       0.80759000
O        0.62767600       0.75218600      -1.73215000
C        1.74747300      -0.95929000      -0.00121000
C        0.34160900      -1.16812600      -0.40890300
C       -1.27562000      -0.51589800      -2.05260600
C        3.28933600       0.58734500       0.97692600
C        4.34243700      -0.33003400       0.83641800
C        2.74206400      -1.90103800      -0.19903400
C        4.07507600      -1.60579900       0.24084800
C       -0.48990600      -2.15383600       0.08951700
C       -1.77332800      -2.35029300      -0.51850400
C       -2.14236100      -1.54215900      -1.64421700
C        5.14966600      -2.51780700       0.10694100
C       -2.70084500      -3.31341500      -0.05681500
C       -3.39751900      -1.71686700      -2.27929800
H       -1.51420700       0.20988900      -2.81976000
N        2.06141500       0.26329000       0.58607900
N       -0.11663900      -0.33973200      -1.42806000
H        3.40470800       1.57367900       1.40544200
C        5.65021400       0.00623100       1.27009000
C        6.41722200      -2.17243000       0.54035500
C        6.67253900      -0.90727300       1.12133400
H        5.82724300       0.98147200       1.71343000
H        4.97894800      -3.49296100      -0.33360500
H        7.23125900      -2.88310100       0.43208500
H        7.67708400      -0.65889800       1.44961500
C       -3.92354500      -3.46266300      -0.68600300
C       -4.27545300      -2.66609500      -1.80120300
H       -3.65578600      -1.08625700      -3.12428700
H       -2.45362800      -3.93831900       0.79345400
H       -4.62743400      -4.20265800      -0.31700900
H       -5.24270300      -2.80107700      -2.27492300
C        2.46038300      -3.21299300      -0.88175400
H        2.55085800      -4.04050500      -0.16790900
H        1.46609200      -3.24406400      -1.32712500
H        3.19787300      -3.38107500      -1.67316000
C       -0.07654900      -2.99908100       1.26169500
H       -0.83443000      -2.92054800       2.04965800
H       -0.01354500      -4.05454300       0.97285800
H        0.88479300      -2.68794700       1.67161400
