57
Properties=species:S:1:pos:R:3 pbc="F F F"
Si       0.46168300      -1.08183600       0.66615000
O        2.11680900      -1.36221600      -0.23563600
C        3.22684600      -1.62846200       0.29522800
C        4.45390800      -1.65039800      -0.45613900
H        3.26324400      -1.89219800       1.35713200
C        4.49315500      -1.34450900      -1.83504500
C        5.63820900      -1.99321900       0.23055400
C        5.70676900      -1.38105000      -2.50802700
H        3.57350000      -1.08548200      -2.34969100
C        6.84992000      -2.02734500      -0.45240600
H        5.59243200      -2.22532300       1.29137900
C        6.88271800      -1.72114600      -1.81864000
H        5.74899600      -1.14844200      -3.56779500
H        7.76445400      -2.29010800       0.07015700
H        7.82855800      -1.74769300      -2.35278300
C        3.69088900       1.14717500       1.70666600
C        2.43697600       0.76143200       1.77552900
H        3.99238800       1.98336400       1.07761900
H        4.46593200       0.65162400       2.28977500
C        1.21139600       0.32047500       1.78826400
H        0.52181600       0.73566200       2.52551100
Cl      -0.36900400      -2.63457300      -0.72314300
Cl       0.81538500      -2.63314700       2.25919200
O       -1.22311900      -0.64218000       1.40489800
O        0.06202500       0.09589600      -0.79863000
C       -2.55579200       0.54562700      -0.14849600
C       -1.57779700       1.64413400      -0.10114500
C        0.66219800       2.32664300      -0.54993600
C       -3.18860500      -1.60996500       0.65330000
C       -4.39000400      -1.59131500      -0.08219700
C       -3.71136900       0.62712600      -0.87893800
C       -4.65955700      -0.42809600      -0.87465600
C       -1.92360200       2.93300300       0.20637000
C       -0.96670100       3.97995300       0.15909200
C        0.37500200       3.67033900      -0.24031700
H       -3.88324600       1.51052700      -1.48281200
H       -2.94589400       3.14323600       0.49907700
N       -2.31375500      -0.59432400       0.62181600
N       -0.26124200       1.35924800      -0.46967800
F       -2.88721600      -2.61550300       1.44032300
C       -5.30605500      -2.67098200      -0.05001300
C       -5.85718200      -0.38097700      -1.62438200
C       -6.74056800      -1.44381500      -1.58234100
H       -7.65891100      -1.40366700      -2.16031700
C       -6.46497200      -2.58876000      -0.79600700
H       -7.17315300      -3.41120700      -0.78135100
H       -6.06802300       0.49606000      -2.22841700
F        1.85371900       1.96172900      -0.96855500
C       -1.28330200       5.31760500       0.48973400
C        1.36082700       4.68506800      -0.30612800
C       -0.30813600       6.29547600       0.42353800
H       -0.55559000       7.32108800       0.68002700
C        1.01368000       5.97951300       0.02581300
H       -2.29669000       5.56001000       0.79462600
H        1.76186800       6.76469500      -0.01678500
H       -5.08790500      -3.54523700       0.55263700
H        2.37182600       4.43633800      -0.60851800
