57
Properties=species:S:1:pos:R:3 pbc="F F F"
Si       0.49979600      -1.08532500       0.80406900
O        2.20910500      -1.56555900       0.12738600
C        2.99348900      -0.91806400      -0.61280800
C        4.34311800      -1.34936400      -0.86391700
H        2.63563900      -0.02246100      -1.12377200
C        4.88451500      -2.50454000      -0.25668100
C        5.12588800      -0.57667200      -1.74829400
C        6.19326700      -2.87279100      -0.53670000
H        4.27004100      -3.08725100       0.42198900
C        6.43650900      -0.95396200      -2.02322300
H        4.69543500       0.30995500      -2.20666000
C        6.96786600      -2.09971300      -1.41759700
H        6.62001000      -3.75824600      -0.07544900
H        7.04434800      -0.36436900      -2.70252100
H        7.99164200      -2.39459000      -1.63098200
C        3.70715100       1.19378400       1.64670800
C        2.47207700       0.78054700       1.82044000
H        3.93519900       2.05752700       1.02445800
H        4.53990200       0.69632800       2.14226100
C        1.26747700       0.29757300       1.92460300
H        0.62534300       0.64611500       2.73539600
Cl      -0.30581800      -2.57612500      -0.67075500
Cl       0.69958200      -2.63177300       2.40127000
O       -1.19613300      -0.58172800       1.44878500
O        0.22308200       0.16812100      -0.69526500
C       -2.48724600       0.47140400      -0.21742300
C       -1.56726400       1.61544800      -0.13260600
C        0.63812300       2.44560400      -0.43991100
C       -3.10698700      -1.64951300       0.67807900
C       -4.26115400      -1.71250300      -0.12691700
C       -3.59366000       0.47224500      -1.02418100
C       -4.50870800      -0.61203900      -1.01159100
C       -2.01909700       2.88139900       0.12931300
C       -1.13962300       3.99330600       0.13276000
C        0.24156600       3.77041300      -0.17302900
H       -3.75640600       1.31620100      -1.68481500
H       -3.07192600       3.02068200       0.34616900
N       -2.26135200      -0.61064900       0.63060700
N       -0.20934800       1.40661100      -0.39997300
F       -2.81875000      -2.59744200       1.53743100
C       -5.14906400      -2.81499400      -0.07999300
C       -5.65618300      -0.65069600      -1.83621400
C       -6.51251800      -1.73468600      -1.77847300
H       -7.39243400      -1.75982900      -2.41414600
C       -6.25877800      -2.81701000      -0.90135000
H       -6.94479000      -3.65776600      -0.87582800
H       -5.85138900       0.17883500      -2.50863300
F        1.87796600       2.17793600      -0.79542200
C       -1.57024500       5.30966900       0.41548100
C        1.15701500       4.85124400      -0.19943700
C       -0.66295800       6.35256000       0.39121700
H       -0.99678000       7.36224600       0.61018900
C        0.70015900       6.12319300       0.08315200
H       -2.61584300       5.48424200       0.64984800
H        1.39373700       6.95803400       0.07039300
H       -4.94754600      -3.64136900       0.59200900
H        2.19980100       4.67063300      -0.43385900
