57
Properties=species:S:1:pos:R:3 pbc="F F F"
Si       0.69997900      -0.74257800       0.88590700
O        2.48620800      -0.45221100       0.29567600
C        3.45223600      -1.25925400       0.34017300
C        4.70583200      -0.99141000      -0.31744600
H        3.36116200      -2.17293400       0.93526300
C        4.91505500       0.18000500      -1.07848500
C        5.73727200      -1.94431900      -0.18113900
C        6.14265700       0.38452000      -1.69430400
H        4.11226900       0.90402300      -1.17245300
C        6.96393500      -1.73152600      -0.80271300
H        5.56099800      -2.84155600       0.40629800
C        7.16476000      -0.56933500      -1.55787900
H        6.31471000       1.28135300      -2.28187400
H        7.76086000      -2.46197300      -0.70314200
H        8.12234500      -0.40250000      -2.04351400
C        2.42281600      -3.29804200      -1.71869200
C        1.41222300      -2.78041800      -1.05664800
H        3.01241400      -4.11264900      -1.29970700
H        2.69071600      -2.94290500      -2.71291800
C        0.46863400      -2.22068600      -0.35550400
H       -0.53506000      -2.62721800      -0.47755700
Cl       1.04067600       1.06786600       2.18310500
Cl       1.24025000      -2.10274000       2.58827600
O        0.18173100       0.34530000      -0.60294100
O       -1.09418400      -0.66450600       1.48374000
C       -1.86475900       1.44201100      -0.17114100
C       -2.53504800       0.13409400      -0.22878200
C       -2.74239800      -2.06793400       0.66324000
C        0.16017000       2.66371800      -0.46137900
C       -0.49214800       3.89902700      -0.28004200
C       -2.55865100       2.60939500       0.01290200
C       -1.90269700       3.86605000      -0.02692500
C       -3.62225400      -0.08427000      -1.03474900
C       -4.31744500      -1.31988400      -1.02169400
C       -3.86544500      -2.35270400      -0.13594500
H       -3.62483200       2.56015100       0.20209900
H       -3.94118900       0.71108200      -1.69832500
N       -0.49001100       1.49415900      -0.40017300
N       -2.09813600      -0.89066300       0.61561900
F        1.44516200       2.60432400      -0.72977700
C        0.20266900       5.13210100      -0.32969700
C       -2.58505000       5.08803000       0.17357700
C       -1.89128900       6.28275200       0.12380400
H       -2.41873800       7.21882900       0.28020200
C       -0.49762400       6.30478000      -0.12711500
H        0.02534100       7.25539800      -0.15881000
H       -3.65321200       5.07011800       0.36686100
F       -2.26330800      -2.95308700       1.50869500
C       -5.43682400      -1.57558400      -1.84637200
C       -4.52951400      -3.60321400      -0.08576200
C       -6.07312900      -2.80144800      -1.78564500
H       -6.93264500      -2.99392900      -2.42051500
C       -5.61980700      -3.81466000      -0.90559400
H       -5.78328700      -0.79902900      -2.52117700
H       -6.13605000      -4.76899900      -0.87723600
H        1.27004700       5.14155200      -0.51870600
H       -4.17604800      -4.37487900       0.58859100
