57
Properties=species:S:1:pos:R:3 pbc="F F F"
Si       0.71538700      -0.74008000       0.68719800
O        2.42005400      -0.44630100      -0.12416800
C        3.26798700      -1.34220100      -0.37552700
C        4.60607300      -1.03703800      -0.80197500
H        2.97577000      -2.39360000      -0.28840300
C        5.06969700       0.29379800      -0.91382600
C        5.46313400      -2.11762100      -1.10387600
C        6.37512000       0.52905100      -1.32180200
H        4.40005000       1.11288800      -0.67240700
C        6.76922400      -1.87133100      -1.51496700
H        5.09322900      -3.13533700      -1.01039700
C        7.22268900      -0.55059900      -1.62237500
H        6.74415700       1.54656600      -1.40782700
H        7.43375500      -2.69719500      -1.74890700
H        8.24356300      -0.35766300      -1.94053700
C        3.80507100      -2.34588500       2.69298800
C        2.54110700      -2.22572000       2.35658800
H        4.21715600      -1.80133400       3.54200400
H        4.47743800      -3.00711300       2.14718300
C        1.31132500      -2.05079900       1.96354300
H        0.52130300      -2.69260500       2.35474800
Cl       1.20197800       1.02731800       2.02245600
Cl       0.23150100      -2.40254100      -0.83025100
O        0.09480500       0.36748000      -0.70106200
O       -1.01508800      -0.71390000       1.42672000
C       -1.93237400       1.42056700      -0.08427900
C       -2.59081600       0.10730100      -0.14144000
C       -2.67762400      -2.13429600       0.66479200
C        0.05781000       2.67661600      -0.47647800
C       -0.59679000       3.89861100      -0.22735700
C       -2.62319900       2.57479200       0.17544000
C       -1.98634200       3.84052700       0.11948900
C       -3.71707400      -0.10812300      -0.89213800
C       -4.37139900      -1.36613900      -0.89312800
C       -3.83625300      -2.42030500      -0.08263800
H       -3.67323500       2.50707700       0.43447200
H       -4.09540500       0.70134300      -1.50574400
N       -0.57513300       1.49762200      -0.39815700
N       -2.08301200      -0.93295600       0.63718500
F        1.32037000       2.63935400      -0.83360600
C        0.07692900       5.14228900      -0.30271800
C       -2.66949800       5.04891900       0.38733900
C       -1.99651300       6.25413100       0.31155700
H       -2.52495700       7.17973100       0.51878600
C       -0.62362700       6.30105300      -0.03304600
H       -0.11720700       7.25969600      -0.08447500
H       -3.72213400       5.01282300       0.65073500
F       -2.13977300      -3.03193700       1.45913500
C       -5.52756300      -1.62423600      -1.66499900
C       -4.45616200      -3.69353300      -0.05304600
C       -6.11924400      -2.87305000      -1.62609100
H       -7.00629400      -3.06736500      -2.22133600
C       -5.58408600      -3.90731000      -0.81997900
H       -5.93671000      -0.83136600      -2.28353300
H       -6.06621100      -4.87966700      -0.80711900
H        1.12854900       5.17027200      -0.56440200
H       -4.03951100      -4.48169500       0.56370000
