57
Properties=species:S:1:pos:R:3 pbc="F F F"
Si       0.28478800      -1.83774500       0.75126100
O       -1.35448800      -1.14003000      -0.01479300
C       -2.49160900      -1.67910600      -0.06871100
C       -3.56184600      -1.11066400      -0.84879700
H       -2.70189000      -2.55662500       0.54901800
C       -3.37224500       0.04053100      -1.64603700
C       -4.83294900      -1.71678800      -0.76791900
C       -4.44712500       0.57401500      -2.34389900
H       -2.38723700       0.49213100      -1.70714100
C       -5.90486300      -1.17530900      -1.47096900
H       -4.96301100      -2.60395200      -0.15387500
C       -5.71145300      -0.03186000      -2.25605600
H       -4.31236600       1.45865200      -2.95896800
H       -6.88566500      -1.63678400      -1.41163200
H       -6.54819400       0.39089400      -2.80528500
C       -1.85987700      -4.06010900      -1.82855900
C       -0.78934700      -3.77134600      -1.11986800
H       -1.97068400      -3.71188300      -2.85466400
H       -2.65480200      -4.68298200      -1.41981400
C        0.21594000      -3.40610100      -0.37997600
H        1.12639700      -4.00632800      -0.36967200
Cl      -0.82027900      -2.73123600       2.48165800
Cl       2.29750700      -2.28439400       1.61170500
O        1.02039500      -0.86636100      -0.75016900
O        0.37464800      -0.19761700       1.69875600
C        1.95775200       1.19992200      -0.06311500
C        0.60217200       1.66545600       0.25754000
C       -1.38482000       1.31347700       1.52327100
C        3.29937700      -0.54276400      -0.97707300
C        4.47059000       0.23467100      -0.88530200
C        3.05870400       2.00695400       0.05199300
C        4.34274900       1.55632000      -0.34613600
C        0.08298700       2.82497400      -0.25649000
C       -1.21737300       3.26625400       0.09453900
C       -1.98313400       2.48388400       1.01992200
H        2.93684400       3.00067100       0.46738300
H        0.67767000       3.39248600      -0.96276600
N        2.10060200      -0.08786800      -0.58285500
N       -0.15906100       0.91500400       1.15254100
F        3.32238400      -1.74899300      -1.49721400
C        5.73312900      -0.25549800      -1.29998500
C        5.50136400       2.35906300      -0.23506200
C        6.72611000       1.86498700      -0.64360900
H        7.61330700       2.48479300      -0.55615600
C        6.84200800       0.55767000      -1.17570800
H        7.81481900       0.19079800      -1.48754800
H        5.41103700       3.36125700       0.17240600
F       -2.01295600       0.54192900       2.38103800
C       -1.79738900       4.43656200      -0.44668700
C       -3.29431600       2.87705400       1.38578300
C       -3.07889900       4.80403800      -0.08194000
H       -3.52180300       5.70203000      -0.50185000
C       -3.82744700       4.02417300       0.83370400
H       -1.22359200       5.03268100      -1.14927500
H       -4.83277500       4.33292000       1.10210000
H        5.81555600      -1.25815400      -1.70362400
H       -3.86273200       2.27445900       2.08486200
