57
Properties=species:S:1:pos:R:3 pbc="F F F"
Si       0.35954300      -1.09764300       0.91789100
O        2.13810400      -1.57547100       0.37585000
C        2.59443500      -1.71018800      -0.78545000
C        3.98709900      -1.95556800      -1.03687900
H        1.91417100      -1.63739800      -1.64113400
C        4.93010300      -2.02672100       0.01502600
C        4.39955100      -2.11751500      -2.37788200
C        6.26502900      -2.26002400      -0.28216300
H        4.59469900      -1.89142700       1.03794700
C        5.74041800      -2.35310600      -2.66458300
H        3.66335400      -2.05972100      -3.17528900
C        6.66889400      -2.42394400      -1.61833200
H        6.99928600      -2.31662400       0.51561300
H        6.06561700      -2.48210700      -3.69217300
H        7.71619100      -2.60772200      -1.84197200
C        3.61987000       0.87504900       2.37907000
C        2.35044000       0.58317900       2.22643900
H        4.09706800       1.65468100       1.78701300
H        4.23542900       0.34610800       3.10595700
C        1.09347600       0.27158700       2.06685000
H        0.35931300       0.80174800       2.67699700
Cl      -0.47426000      -2.58553600      -0.56977700
Cl       0.42574700      -2.65221700       2.51191600
O       -1.35287100      -0.48753200       1.44138100
O        0.24123500       0.07404800      -0.64068200
C       -2.35431000       0.75846100      -0.26555500
C       -1.28265000       1.76098900      -0.12039000
C        1.03559800       2.27007800      -0.46326300
C       -3.36717600      -1.25882600       0.55293300
C       -4.45774100      -1.11098800      -0.34738500
C       -3.38803600       0.94984100      -1.14127000
C       -4.45711000       0.02643200      -1.22322500
C       -1.55388500       3.07198200       0.16192600
C       -0.52438200       4.04379000       0.17226000
C        0.81169600       3.64164700      -0.16815400
H       -3.37232000       1.82286000      -1.78342000
C       -5.52222800       0.20172900      -2.13704400
H       -2.57600500       3.35846000       0.38181900
C       -0.78202900       5.39799100       0.48924500
C        1.84504600       4.61231100      -0.18415300
Cl       2.56339900       1.68806300      -0.97526800
N       -2.35487500      -0.36410900       0.55967500
N        0.02809500       1.37515500      -0.39465600
Cl      -3.29279500      -2.52763200       1.69417600
C       -5.53124200      -2.03496300      -0.41413000
C       -6.55334000      -0.71536400      -2.18367300
C       -6.55466900      -1.83530500      -1.31902000
H       -5.54185300      -2.89822000       0.24023100
H       -5.51145600       1.06499000      -2.79552900
H       -7.36927900      -0.57937600      -2.88696200
H       -7.37089900      -2.54934200      -1.36759400
C        0.24424000       6.32167400       0.47225700
C        1.55963100       5.92478000       0.13477700
H        2.85740300       4.32046500      -0.43659100
H       -1.79549600       5.69307200       0.74354600
H        0.04405000       7.35992300       0.71861600
H        2.35694500       6.66140300       0.12772900
