57
Properties=species:S:1:pos:R:3 pbc="F F F"
Si       0.29626400      -1.78250600       0.64562400
O       -1.29397500      -1.18559600      -0.30543200
C       -2.22976700      -1.89750200      -0.75558700
C       -3.45975900      -1.33576700      -1.25630700
H       -2.09203900      -2.98001600      -0.82149500
C       -3.67357900       0.05736900      -1.33268900
C       -4.46291100      -2.22933700      -1.68783900
C       -4.87993500       0.54352800      -1.81768300
H       -2.88823900       0.73627600      -1.02327300
C       -5.67119900      -1.73532900      -2.16965500
H       -4.28570600      -3.29997600      -1.62874200
C       -5.87953200      -0.35158100      -2.23177900
H       -5.04887500       1.61441500      -1.87913200
H       -6.44849200      -2.41905700      -2.49643100
H       -6.82246600       0.03386300      -2.60968000
C       -3.33305800      -3.07265000       1.85198800
C       -2.04012700      -2.86907800       1.98276200
H       -3.71931000      -3.98873200       1.40672900
H       -4.06019400      -2.34340600       2.20740300
C       -0.76458900      -2.62353100       2.03227500
H       -0.19817900      -2.91963200       2.91578800
Cl       2.23326000      -2.10381300       1.71603500
Cl       0.46396400      -3.61625800      -0.62846800
O        1.08146700      -0.79944900      -0.77280000
O        0.19156400      -0.09152000       1.60367300
C        1.92955500       1.25012200      -0.01468200
C        0.54393400       1.71331500       0.16000000
C       -1.53788000       1.45126100       1.31642000
C        3.38734000      -0.44016000      -0.89534300
C        4.52513500       0.37888300      -0.65987300
C        2.99310400       2.07737700       0.22601200
C        4.31567500       1.66774000      -0.06302600
C        0.09408600       2.85903300      -0.44042800
C       -1.21255300       3.34430800      -0.20069000
C       -2.05517300       2.63221900       0.71807000
H        2.80686400       3.05867200       0.64694700
C        5.42734500       2.50055700       0.20372300
H        0.75564500       3.38768600      -1.11708600
C       -1.70752400       4.50347200      -0.84359700
C       -3.36623400       3.11239200       0.96907300
Cl      -2.43964500       0.53537700       2.44355200
N        2.15250200      -0.01942000      -0.54080600
N       -0.29613400       1.00858200       1.01782900
Cl       3.50785400      -1.95787000      -1.66694800
C        5.84546400      -0.02949200      -0.97863800
C        6.70260100       2.07522700      -0.11092500
C        6.90862700       0.80694100      -0.70363800
H        6.01736900      -0.99987500      -1.42831200
H        5.25680200       3.47232900       0.65677600
H        7.55478200       2.71528900       0.09637600
H        7.91708900       0.48487000      -0.94368900
C       -2.99050300       4.94390900      -0.58744300
C       -3.81881200       4.24451400       0.32234200
H       -4.01244300       2.58339300       1.65908700
H       -1.06281300       5.03142900      -1.53951000
H       -3.36960700       5.83110900      -1.08537400
H       -4.82567700       4.60195600       0.51421600
