57
Properties=species:S:1:pos:R:3 pbc="F F F"
Si       0.40754800      -1.83463100       0.87193600
O       -1.34652100      -1.41218200       0.13993900
C       -1.67885900      -1.23700800      -1.06283600
C       -3.04785700      -1.00846800      -1.44794000
H       -0.91028600      -1.17893300      -1.83722100
C       -4.10377200      -1.05965200      -0.51083900
C       -3.30712600      -0.67295500      -2.79381700
C       -5.39726100      -0.76940100      -0.92224900
H       -3.89028700      -1.32787600       0.51850800
C       -4.60645100      -0.38013700      -3.19637200
H       -2.48512300      -0.63987400      -3.50430900
C       -5.64812500      -0.42745400      -2.26124200
H       -6.21607100      -0.80643800      -0.21019700
H       -4.81234600      -0.11760400      -4.22940600
H       -6.66294000      -0.19973100      -2.57558700
C       -1.11743200      -4.06531900      -2.11593600
C       -0.25384500      -3.79106700      -1.16159100
H       -0.93704600      -3.76583300      -3.14777800
H       -2.02654100      -4.62876100      -1.90832100
C        0.54038000      -3.44275900      -0.19205100
H        1.36482700      -4.09750700       0.09336500
Cl      -0.63495200      -2.83943900       2.56275900
Cl       2.41640600      -1.98931600       1.81643300
O        1.09053600      -0.83277600      -0.64798500
O        0.25677300      -0.15044800       1.76668200
C        1.69707500       1.33433400      -0.01207100
C        0.27131100       1.61242900       0.22423800
C       -1.67123000       1.17027200       1.56077000
C        3.32010000      -0.20399900      -0.87728900
C        4.35297600       0.76194200      -0.73764500
C        2.65332600       2.30187100       0.13583500
C        4.00340300       2.04842900      -0.20354800
C       -0.37247500       2.63753300      -0.41541900
C       -1.71964600       2.95023300      -0.11975100
C       -2.39030800       2.21142000       0.91233500
H        2.36138700       3.27036400       0.52510100
C        5.00832400       3.03105500      -0.04272300
H        0.16486200       3.20332100      -1.16773800
C       -2.41476700       3.97217000      -0.80760000
C       -3.73753100       2.52594500       1.22542000
Cl      -2.34353000       0.26657100       2.84264600
N        2.05498400       0.08101300      -0.49733100
N       -0.41014600       0.86239100       1.17909500
Cl       3.59611800      -1.74198200      -1.57366400
C        5.70054700       0.50401100      -1.09582800
C        6.31324800       2.75199300      -0.39699000
C        6.65695500       1.48444700      -0.92360800
H        5.97680200      -0.46377900      -1.49665500
H        4.73360000       4.00069700       0.36149900
H        7.08312400       3.50713200      -0.27121800
H        7.68765600       1.27837600      -1.19493300
C       -3.72867400       4.25120300      -0.48902400
C       -4.38885600       3.52444800       0.53008000
H       -4.25528900       1.97434400       2.00063500
H       -1.89728500       4.52671700      -1.58463300
H       -4.26156800       5.03340900      -1.02099900
H       -5.42261300       3.75395700       0.76852500
