57
Properties=species:S:1:pos:R:3 pbc="F F F"
Si      -0.29634000      -1.78267700      -0.64560300
O        1.29393400      -1.18564500       0.30548400
C        2.22971400      -1.89744700       0.75576100
C        3.45964200      -1.33562200       1.25655200
H        2.09207700      -2.97997500       0.82175000
C        3.67341000       0.05752500       1.33282700
C        4.46278800      -2.22912100       1.68823600
C        4.87971500       0.54377000       1.81786200
H        2.88806800       0.73637900       1.02329400
C        5.67102900      -1.73503100       2.17009100
H        4.28561400      -3.29977000       1.62923500
C        5.87931500      -0.35127100       2.23210300
H        5.04860900       1.61467000       1.87922000
H        6.44832300      -2.41870500       2.49697800
H        6.82221600       0.03423100       2.61002600
C        3.33302300      -3.07306400      -1.85171200
C        2.04013300      -2.86930500      -1.98258100
H        4.06025800      -2.34387300      -2.20703700
H        3.71913000      -3.98924200      -1.40652400
C        0.76461500      -2.62365500      -2.03218900
H        0.19829500      -2.91963100      -2.91580300
Cl      -2.23325600      -2.10390400      -1.71613800
Cl      -0.46405500      -3.61632000       0.62846200
O       -1.08148400      -0.79949900       0.77263600
O       -0.19153900      -0.09158100      -1.60382000
C       -1.92949000       1.25012400       0.01456900
C       -0.54386900       1.71326200      -0.16018100
C        1.53793300       1.45116200      -1.31659300
C       -3.38733700      -0.44012800       0.89521500
C       -4.52509800       0.37901100       0.65989200
C       -2.99301600       2.07745100      -0.22600200
C       -4.31558900       1.66789400       0.06312200
C       -0.09399600       2.85899700       0.44022700
C        1.21264400       3.34424200       0.20048300
C        2.05525300       2.63211500      -0.71826400
H       -2.80674200       3.05874300      -0.64692800
C       -5.42721700       2.50082600      -0.20345600
H       -0.75554200       3.38766700       1.11688400
C        1.70764800       4.50339800       0.84338700
C        3.36633100       3.11224800      -0.96925900
Cl       2.43967500       0.53525200      -2.44372000
N       -2.15249800      -0.01943700       0.54064300
N        0.29617000       1.00850300      -1.01800000
Cl      -3.50791100      -1.95788800       1.66671100
C       -5.84542800      -0.02927500       0.97876200
C       -6.70247500       2.07558900       0.11131000
C       -6.90854600       0.80727800       0.70395300
H       -6.01737400      -0.99967900       1.42837600
H       -5.25663800       3.47260600      -0.65647700
H       -7.55462000       2.71574800      -0.09583800
H       -7.91700900       0.48528100       0.94410100
C        2.99064800       4.94378200       0.58725500
C        3.81894100       4.24435100      -0.32251800
H        4.01252400       2.58323600      -1.65927600
H        1.06294000       5.03138900       1.53927700
H        3.36978600       5.83096500       1.08519000
H        4.82582500       4.60175000      -0.51437500
