57
Properties=species:S:1:pos:R:3 pbc="F F F"
Si       0.67193800      -0.73773200       0.83528600
O        2.48027000      -0.51919800       0.23556000
C        3.46839900      -1.27848100       0.40727200
C        4.69949800      -1.11270700      -0.32461400
H        3.41324900      -2.07265400       1.15813000
C        4.84584400      -0.13351200      -1.33167500
C        5.77335600      -1.97124400      -0.00835500
C        6.05387900      -0.02109400      -2.00698100
H        4.00809900       0.51390900      -1.56820000
C        6.98173300      -1.85001800      -0.68824000
H        5.64525500      -2.72334200       0.76575500
C        7.12037900      -0.87685100      -1.68566800
H        6.17580800       0.72708600      -2.78454400
H        7.81169500      -2.50747200      -0.44835000
H        8.06266700      -0.78329400      -2.21855900
C        2.31665600      -3.74226500      -1.19879700
C        1.31393500      -2.95319800      -0.88664400
H        2.48058600      -4.68101000      -0.67076900
H        2.99801400      -3.49482000      -2.01162800
C        0.39487300      -2.11223400      -0.51166000
H       -0.57323400      -2.15215600      -1.01054000
Cl       1.06620600       0.99460700       2.20633700
Cl       1.17179200      -2.18121500       2.47788000
O        0.20697300       0.45142200      -0.61209700
O       -1.12483000      -0.63159000       1.41855500
C       -1.80029700       1.54339300      -0.12165400
C       -2.49169100       0.25042500      -0.27044000
C       -2.79346900      -1.99860000       0.51952400
C        0.22999700       2.78269900      -0.42259400
C       -0.43988000       4.00676900      -0.15238900
C       -2.49239900       2.69498400       0.14064100
C       -1.84128900       3.95049700       0.15428200
C       -3.54781900       0.10980500      -1.13088000
C       -4.27017900      -1.10336700      -1.21411700
C       -3.89222100      -2.19409900      -0.36034700
H       -3.55530500       2.63226100       0.34283500
C       -2.53872300       5.14631400       0.44531100
H       -3.82140800       0.94794800      -1.76110500
C       -5.35243700      -1.26443200      -2.11062400
C       -4.61537500      -3.41211100      -0.43052600
Cl      -2.26950200      -3.20688700       1.60729400
N       -0.43132900       1.60729900      -0.36986700
N       -2.11968900      -0.82520600       0.53439800
Cl       1.88288500       2.73173900      -0.86333100
C        0.21628500       5.26379000      -0.16122100
C       -1.87410500       6.35631600       0.43472300
C       -0.49324900       6.41156500       0.13069900
H        1.27408500       5.31966700      -0.38817800
H       -3.59852900       5.09151700       0.67509800
H       -2.41090500       7.27257100       0.66084000
H        0.01717900       7.36963100       0.12812100
C       -6.03827400      -2.46166400      -2.15978900
C       -5.66664900      -3.53571300      -1.31658100
H       -4.33858700      -4.24245700       0.20779800
H       -5.62925900      -0.43402300      -2.75301300
H       -6.86837900      -2.58335000      -2.84897000
H       -6.21450300      -4.47142400      -1.36757700
