63
Properties=species:S:1:pos:R:3 pbc="F F F"
Si       0.30430000      -1.82283400       0.57059900
O       -1.31504500      -1.16067200      -0.29428300
C       -2.29409200      -1.83280800      -0.70873500
C       -3.52149400      -1.21700100      -1.14878700
H       -2.20189200      -2.91993500      -0.78648900
C       -3.68147900       0.18502200      -1.18632200
C       -4.57682400      -2.06089700      -1.55402200
C       -4.88738600       0.72907200      -1.60689000
H       -2.85598300       0.82337200      -0.89496200
C       -5.78357900      -1.50871700      -1.97288300
H       -4.43979100      -3.13863300      -1.52539100
C       -5.93867100      -0.11675300      -1.99607900
H       -5.01658200       1.80673900      -1.63735400
H       -6.60103900      -2.15338000      -2.28051300
H       -6.88075100       0.31394200      -2.32392100
C       -3.33860400      -2.93889000       1.96298700
C       -2.02611800      -2.85712900       1.99055700
H       -3.84375900      -3.76749100       1.46848100
H       -3.96247900      -2.19611400       2.45884400
C       -0.73271500      -2.72533200       1.94515400
H       -0.13061500      -3.16854900       2.73930600
Cl       2.26670800      -2.29380500       1.55125800
Cl       0.35498100      -3.63516500      -0.79242600
O        1.05782200      -0.84258300      -0.83143500
O        0.29790500      -0.20892200       1.58206000
C        1.99395900       1.15411400      -0.04654100
C        0.62907300       1.64548300       0.20246900
C       -1.42966100       1.35697300       1.42563000
C        3.37424800      -0.58500600      -0.99735300
C        4.52809500       0.21844300      -0.76237400
C        3.08452300       1.94984800       0.17993700
C        4.38597900       1.50563000      -0.15112500
C        0.19298300       2.83095800      -0.32733200
C       -1.09089200       3.33533700      -0.01520500
C       -1.91140200       2.58525200       0.88755800
H        2.93715100       2.92587200       0.62799000
C        5.53320700       2.29478900       0.10050300
H        0.84484800       3.37274100      -1.00303300
C       -1.58116900       4.54035900      -0.57319200
C       -3.20742400       3.07007700       1.20313600
C       -2.24317000       0.53553900       2.36981900
N        2.17530000      -0.10638300      -0.60981500
N       -0.20429200       0.93198500       1.05913500
C        3.46071000      -1.91455200      -1.67121600
C        5.82678800      -0.23942600      -1.10478900
C        6.78478500       1.82181400      -0.24179300
C        6.92987500       0.54972300      -0.84490400
H        5.95525600      -1.21402700      -1.56010900
H        5.41057300       3.26835800       0.56563000
H        7.66568800       2.42613700      -0.04655300
H        7.92066900       0.18890600      -1.10360600
C       -2.84748800       4.98601500      -0.24998800
C       -3.66220700       4.24590700       0.64021800
H       -3.84527700       2.51171100       1.87803100
H       -0.94849600       5.09975500      -1.25593000
H       -3.22477100       5.90871100      -0.68063400
H       -4.65698800       4.60735400       0.88226300
H        2.47674900      -2.31153100      -1.90877200
H        4.05996300      -1.81411800      -2.58186100
H        3.96771600      -2.62227900      -1.00619200
H       -3.13995800       0.17476700       1.85300000
H       -1.68559100      -0.31921600       2.74405400
H       -2.57514100       1.16419800       3.20260600
