63
Properties=species:S:1:pos:R:3 pbc="F F F"
Si       0.65221100      -0.81341700       0.62950200
O        2.36341300      -0.67121000      -0.27743100
C        3.48133000      -0.71226000       0.29447500
C        4.72317300      -0.71448200      -0.43075400
H        3.52144600      -0.73103200       1.38851000
C        4.76576700      -0.66272200      -1.84270000
C        5.91967100      -0.77245600       0.31640200
C        5.99420900      -0.66704600      -2.48862000
H        3.83692800      -0.62243000      -2.40244600
C        7.14639900      -0.77797800      -0.34035400
H        5.87045200      -0.81755000       1.40133800
C        7.18156100      -0.72432600      -1.73930400
H        6.04021200      -0.62781300      -3.57270300
H        8.07041800      -0.82459100       0.22744900
H        8.13912800      -0.72829000      -2.25281900
C        3.12810000      -3.84919900       1.55561100
C        2.16981300      -2.98283300       1.78906200
H        4.17038600      -3.61326100       1.76805500
H        2.90961100      -4.83903200       1.15607000
C        1.23665800      -2.08767200       1.95129000
H        0.72696100      -2.00906700       2.91250400
Cl       1.27884000       0.91099900       2.04323000
Cl       0.14005800      -2.38644600      -0.92006500
O        0.10439900       0.36856900      -0.69948300
O       -1.03608900      -0.70607000       1.40168800
C       -1.84909200       1.47273100      -0.05513000
C       -2.55549100       0.18260600      -0.14279200
C       -2.77996000      -2.07102900       0.71331900
C        0.19999900       2.69045500      -0.45667400
C       -0.47527400       3.90801300      -0.15344600
C       -2.52154700       2.62843800       0.23914800
C       -1.85980700       3.87838900       0.21251700
C       -3.68041600       0.03807300      -0.91030500
C       -4.39919100      -1.18004700      -0.92059400
C       -3.94533500      -2.25729200      -0.08544200
H       -3.57227700       2.57157400       0.49903100
C       -2.52881400       5.08546500       0.52556300
H       -4.00748300       0.86957000      -1.52415000
C       -5.54665900      -1.35137500      -1.73092400
C       -4.67009600      -3.47909100      -0.10176900
C       -2.21526200      -3.07153200       1.66635600
N       -0.49525900       1.53993500      -0.37312600
N       -2.13257400      -0.89115000       0.62931700
C        1.63105500       2.66178900      -0.88733500
C        0.19869900       5.15599500      -0.19466700
C       -1.84664300       6.28522300       0.47839100
C       -0.47827700       6.31840300       0.11808900
H        1.24717100       5.19637500      -0.46495500
H       -3.57880800       5.04955600       0.80064000
H       -2.36014200       7.21136100       0.71898300
H        0.04490900       7.26927500       0.08819000
C       -6.22726000      -2.55218300      -1.72348500
C       -5.78323700      -3.61829400      -0.90652900
H       -4.35069000      -4.31627400       0.50537900
H       -5.87507900      -0.52634000      -2.35595100
H       -7.10590600      -2.68359300      -2.34795900
H       -6.32288800      -4.56035700      -0.91363800
H        1.93247900       1.66862300      -1.21020300
H        1.77236500       3.37759700      -1.70375500
H        2.26515900       2.97122800      -0.04979400
H       -1.21372700      -3.36605600       1.33659400
H       -2.10790900      -2.61121300       2.65428500
H       -2.84831600      -3.95219400       1.74658900
