63
Properties=species:S:1:pos:R:3 pbc="F F F"
Si       0.46866700      -1.03347500       0.63603300
O        2.15725200      -1.28170200      -0.25115500
C        3.25966700      -1.59508400       0.26862900
C        4.49295900      -1.57659800      -0.47594700
H        3.28479300      -1.93509200       1.30843300
C        4.53912700      -1.21080400      -1.83960700
C        5.67461900      -1.94684900       0.20023700
C        5.75646000      -1.21282900      -2.50748600
H        3.62102700      -0.94083700      -2.35137700
C        6.89048900      -1.94422000      -0.47638900
H        5.62388600      -2.22730200       1.24904100
C        6.93022100      -1.57702800      -1.82733600
H        5.80226600      -0.93648200      -3.55657400
H        7.80309900      -2.22684300       0.03920100
H        7.87903900      -1.57671800      -2.35680700
C        3.74159400       1.00250200       1.91961100
C        2.45998700       0.71523300       1.87208200
H        4.41385900       0.46781700       2.58948100
H        4.17263500       1.79552900       1.31009000
C        1.21137000       0.36077600       1.77769100
H        0.48807000       0.84962600       2.43315300
Cl      -0.28551400      -2.61588400      -0.77138700
Cl       0.87091600      -2.61350400       2.22632300
O       -1.19960600      -0.66185700       1.38017100
O        0.05773500       0.12781700      -0.80049900
C       -2.54652400       0.47569100      -0.15092300
C       -1.59913000       1.60297700      -0.08050700
C        0.63453500       2.38613700      -0.56624800
C       -3.16048900      -1.71275700       0.67077800
C       -4.35801100      -1.65319000      -0.10025400
C       -3.69297400       0.56089100      -0.89359200
C       -4.63275200      -0.49711200      -0.89937300
C       -2.01014900       2.86456800       0.25547900
C       -1.10896400       3.95526500       0.21004300
C        0.23420000       3.71064500      -0.22420000
H       -3.86523700       1.44993900      -1.48927900
C       -5.82201300      -0.43908900      -1.66431400
H       -3.03893800       3.01679300       0.56185700
C       -1.50230200       5.26667900       0.56816600
C        1.14166800       4.79884900      -0.29772900
C        2.00432700       2.07664300      -1.07645100
N       -2.31258000      -0.66817700       0.60986200
N       -0.27540800       1.39849900      -0.46460400
C       -2.84375200      -2.87544000       1.55344700
C       -5.29067400      -2.72216400      -0.09383700
C       -6.71217400      -1.49479600      -1.63763000
C       -6.44323000      -2.63953300      -0.85030000
H       -5.09702600      -3.60628100       0.50184100
H       -6.01909000       0.44295500      -2.26643700
H       -7.62485900      -1.45008300      -2.22446500
H       -7.15118200      -3.46267300      -0.84208300
C       -0.59472400       6.30506900       0.49366500
C        0.73052300       6.06863500       0.05718400
H        2.15971200       4.63430600      -0.62997600
H       -2.52238200       5.43848100       0.89894000
H       -0.89674100       7.31089700       0.77006700
H        1.43226700       6.89528600       0.00206300
H       -1.92473700      -2.72180400       2.11390600
H       -3.68110500      -3.04202800       2.24024900
H       -2.73359900      -3.77230400       0.93458600
H        2.75151600       2.49925000      -0.40014700
H        2.16592800       1.00737000      -1.17223900
H        2.13320300       2.55370000      -2.05616400
