63
Properties=species:S:1:pos:R:3 pbc="F F F"
Si       0.49467800      -1.95807500       0.67444300
O       -1.32993000      -1.50847700       0.05669500
C       -1.71984100      -0.98662400      -1.01739200
C       -3.11464000      -0.73405500      -1.27744000
H       -0.98816700      -0.63928400      -1.75252400
C       -4.12881600      -1.17734500      -0.40001400
C       -3.44191800       0.04805600      -2.40492600
C       -5.44907400      -0.83094200      -0.65010200
H       -3.86132100      -1.78602000       0.45749600
C       -4.76747100       0.39849400      -2.64308000
H       -2.65055300       0.38242300      -3.07086000
C       -5.76751900      -0.04045900      -1.76676700
H       -6.23646100      -1.16853200       0.01685200
H       -5.02561000       1.00791700      -3.50353300
H       -6.80274300       0.23152100      -1.95333700
C       -0.78813600      -3.46579000      -2.79259800
C       -0.09068500      -3.51021100      -1.67852300
H       -0.35768700      -3.08256000      -3.71727600
H       -1.80881900      -3.84535100      -2.83322900
C        0.53977600      -3.45959900      -0.54116700
H        1.14383700      -4.30311000      -0.20544500
Cl      -0.50354200      -3.14320600       2.30333200
Cl       2.53608600      -2.26457300       1.51495100
O        1.09051900      -0.82267600      -0.72501000
O        0.37956000      -0.40763300       1.74660400
C        1.73584700       1.26934000       0.08456900
C        0.32033800       1.51089500       0.40545500
C       -1.58512200       0.85967700       1.74232100
C        3.32705200      -0.21770900      -0.95816200
C        4.34829400       0.75620000      -0.75778800
C        2.69314700       2.22660000       0.28142200
C        4.03112400       1.99987000      -0.12052700
C       -0.35773700       2.58524800      -0.10581400
C       -1.71260700       2.81081000       0.23176600
C       -2.33671400       1.93060500       1.17764900
H        2.41326600       3.15815100       0.76017800
C        5.04836600       2.96173900       0.08628500
H        0.14956700       3.24016000      -0.80517100
C       -2.46094400       3.85812000      -0.35536800
C       -3.70891200       2.12460000       1.48771700
C       -2.11390200      -0.06196200       2.78906100
N        2.08457400       0.06690300      -0.52135700
N       -0.32833600       0.65815900       1.29222600
C        3.58638500      -1.51266200      -1.65851100
C        5.68455400       0.51628900      -1.16981300
C        6.34071600       2.69922300      -0.32398400
C        6.65788700       1.47180200      -0.95296700
H        5.94290400      -0.42106100      -1.64818200
H        4.79551000       3.90065900       0.57014800
H        7.12147000       3.43671200      -0.16349500
H        7.67916200       1.27883200      -1.26698700
C       -3.79427000       4.01805600      -0.03534000
C       -4.41935100       3.14199800       0.88334200
H       -4.21182700       1.45973700       2.17899600
H       -1.97218700       4.52066200      -1.06338400
H       -4.37086100       4.81638800      -0.49282600
H       -5.47216700       3.27031100       1.11487000
H        2.67260000      -2.08689100      -1.79719100
H        4.05155000      -1.30681400      -2.62881200
H        4.29013000      -2.10729100      -1.06667600
H       -2.55787100      -0.94783800       2.32262400
H       -1.30313200      -0.41594700       3.42699300
H       -2.86912700       0.44577300       3.38953900
