63
Properties=species:S:1:pos:R:3 pbc="F F F"
Si       0.69518900      -0.71347300       0.69322700
O        2.42963100      -0.42976500      -0.06355200
C        3.24418100      -1.27724400      -0.51645600
C        4.61896000      -0.94106400      -0.79019800
H        2.89377400      -2.28361300      -0.76093700
C        5.14730200       0.33476900      -0.49316700
C        5.43827800      -1.93130300      -1.37216500
C        6.47912100       0.60699000      -0.77703000
H        4.50645400       1.08398700      -0.03987000
C        6.77104000      -1.64874500      -1.65588900
H        5.01997800      -2.91051400      -1.59029400
C        7.28957100      -0.38234500      -1.35740700
H        6.89592800       1.58349200      -0.54935500
H        7.40671400      -2.40657500      -2.10339100
H        8.33120200      -0.16300200      -1.57545300
C        3.71720900      -3.03483900       1.96081800
C        2.50977900      -2.51792800       2.03618000
H        3.89667600      -3.98363100       1.45602100
H        4.57238100      -2.54150100       2.42163600
C        1.33978200      -1.95099200       2.02695700
H        0.64163700      -2.13805500       2.84355400
Cl       1.15768200       1.05678300       2.07219400
Cl       0.24260400      -2.38165800      -0.82525000
O        0.10754100       0.38625500      -0.68284300
O       -1.01767400      -0.70584000       1.42925100
C       -1.91115300       1.40126400      -0.09458700
C       -2.54924700       0.07483900      -0.16184500
C       -2.69471600      -2.15954500       0.75595900
C        0.07605700       2.71674100      -0.49647000
C       -0.66728400       3.90311300      -0.23024200
C       -2.64771700       2.52563900       0.16596400
C       -2.05289300       3.80825000       0.11924100
C       -3.65143300      -0.14006200      -0.94541700
C       -4.31850900      -1.38693000      -0.93317900
C       -3.83741900      -2.41757200      -0.05566800
H       -3.69750200       2.41868100       0.41400100
C       -2.78879500       4.98458900       0.39713400
H       -4.00155600       0.66073900      -1.58664600
C       -5.44209800      -1.63005000      -1.75855400
C       -4.51249100      -3.66760600      -0.04563500
C       -2.10736300      -3.10984500       1.74625900
N       -0.55928200       1.53346700      -0.39848900
N       -2.09261600      -0.95765700       0.64709900
C        1.51393100       2.75810000      -0.90095400
C       -0.05954200       5.18378900      -0.29118600
C       -2.17006500       6.21745300       0.33214300
C       -0.80075800       6.31522100      -0.01232500
H        0.98867400       5.27424400      -0.55043700
H       -3.83909700       4.89917100       0.65973600
H       -2.73469700       7.11999200       0.54639100
H       -0.32772500       7.29146500      -0.05697100
C       -6.07449100      -2.85644600      -1.72407200
C       -5.60392400      -3.87700600      -0.86482700
H       -4.17189800      -4.47204800       0.59342400
H       -5.79119500      -0.83872400      -2.41532400
H       -6.93536900      -3.04299000      -2.35917100
H       -6.10576900      -4.83964400      -0.85026100
H        1.88920300       1.77207200      -1.15961200
H        1.62440300       3.43658800      -1.75369000
H        2.10714800       3.15617800      -0.07103100
H       -1.09852300      -3.39075400       1.42724800
H       -2.01647700      -2.61325500       2.71789500
H       -2.71645600      -4.00409100       1.85590300
