63
Properties=species:S:1:pos:R:3 pbc="F F F"
Si       0.39655200      -0.94364000       0.66514200
O        2.14942500      -1.20826600       0.02079300
C        2.66674000      -2.22579600      -0.51443900
C        4.08839800      -2.33815900      -0.70725800
H        2.02222000      -3.02528200      -0.88863000
C        4.98171800      -1.33418900      -0.27016800
C        4.57649800      -3.49009600      -1.36066400
C        6.34390000      -1.49094400      -0.48778700
H        4.59129800      -0.45475500       0.23070800
C        5.94320400      -3.63784100      -1.57447600
H        3.87725300      -4.25510500      -1.68776800
C        6.82392500      -2.63979300      -1.13791900
H        7.03991300      -0.72660400      -0.15558000
H        6.32559200      -4.52176900      -2.07546200
H        7.89155100      -2.75557200      -1.30343200
C        2.29131700      -4.25346300       1.79299600
C        1.38859600      -3.30841200       1.94116500
H        2.05011900      -5.19448700       1.29950400
H        3.30103100      -4.13487400       2.18451300
C        0.54108000      -2.32452000       1.99886200
H       -0.11212000      -2.21292400       2.86268000
Cl       1.28363700       0.56695100       2.12954300
Cl      -0.51398600      -2.28859900      -0.91949900
O        0.27267300       0.36682300      -0.70630600
O       -1.30732200      -0.37783800       1.29544700
C       -1.22054300       1.99040800      -0.01944500
C       -2.29383000       1.01010900      -0.27551600
C       -3.33777500      -1.06485500       0.32225800
C        1.08495300       2.55110300      -0.37529800
C        0.86398900       3.85968900       0.13976500
C       -1.49340300       3.25280700       0.43299600
C       -0.46557000       4.20940300       0.56714000
C       -3.29455000       1.29586900      -1.16449800
C       -4.35380900       0.39206400      -1.38180300
C       -4.38700900      -0.82345800      -0.61350200
H       -2.51169200       3.50289600       0.70837100
H       -3.25152100       2.22787600      -1.71680000
N        0.07844800       1.65466900      -0.37080700
N       -2.32429800      -0.18016800       0.44217900
C       -0.72742200       5.49376700       1.09889500
C        0.29519100       6.40946900       1.22705600
H        0.09774600       7.39380200       1.64011700
C        1.60933200       6.06612300       0.82948800
H        2.41117900       6.78745500       0.95182900
H       -1.74000400       5.73445900       1.40735400
C       -5.36785600       0.66932300      -2.32889200
C       -6.39407800      -0.23013400      -2.52357600
H       -7.17258600      -0.02244000      -3.25108500
C       -6.43381700      -1.43045400      -1.77580100
H       -5.31682000       1.59520000      -2.89337400
H       -7.24178000      -2.13662100      -1.93962600
C       -3.43560200      -2.31008700       1.23777300
C        2.45875700       2.20024700      -0.99883800
C        1.89562100       4.82858500       0.29241300
H        2.91463600       4.60210300       0.01298000
C       -5.46403400      -1.72698900      -0.84099400
H       -5.53423700      -2.65777900      -0.29796100
F        3.41641900       2.18090300      -0.04269900
F        2.77727900       3.18390600      -1.88702500
F        2.51987300       1.05233400      -1.67617900
F       -2.49526500      -2.44360000       2.17178100
F       -4.63044500      -2.25355700       1.89250100
F       -3.42990000      -3.43470800       0.48275800
