63
Properties=species:S:1:pos:R:3 pbc="F F F"
Si      -0.26559400      -1.09826900      -0.58013700
O       -1.85939900      -1.70022700       0.25001700
C       -2.81032500      -2.34206600      -0.27188800
C       -4.04104700      -2.59435000       0.43026200
H       -2.68755200      -2.76200000      -1.27400700
C       -4.25200100      -2.15270900       1.75549000
C       -5.04967900      -3.31092000      -0.24926600
C       -5.46125700      -2.42297200       2.38170000
H       -3.46465100      -1.61194300       2.26853000
C       -6.25950400      -3.57418500       0.38533500
H       -4.87312700      -3.64544100      -1.26818000
C       -6.46401500      -3.12951400       1.69766900
H       -5.63259000      -2.09025700       3.40098200
H       -7.04046300      -4.12187900      -0.13299400
H       -7.40833200      -3.33606600       2.19388700
C       -3.78979300      -0.20102500      -2.29034300
C       -2.50543600      -0.03389700      -2.07334500
H       -4.14091300      -0.91426900      -3.03515500
H       -4.53715100       0.37696200      -1.75100000
C       -1.23250800       0.04644500      -1.81270400
H       -0.62982500       0.76359200      -2.37226400
Cl       0.80443300      -2.26855000       0.98821400
Cl      -0.14628700      -2.79510000      -2.03170200
O        1.34463800      -0.31066300      -1.26038100
O       -0.25855500       0.29581400       0.81047200
C        2.24032600       1.08788800       0.34868700
C        1.11064200       1.99989100       0.08195000
C       -1.23760500       2.39613800       0.35589800
C        3.45528600      -0.84835300      -0.37295900
C        4.42923700      -0.63349400       0.64321700
C        3.19567200       1.38411000       1.28205000
C        4.28946800       0.51840900       1.49413200
C        1.30938500       3.26725100      -0.39045900
C        0.22417400       4.15276000      -0.56128200
C       -1.08709600       3.71907700      -0.15788800
H        3.08296200       2.27992100       1.88264400
H        2.31595700       3.58087300      -0.64409900
N        2.36806900      -0.05190100      -0.43437300
N       -0.17014600       1.56986000       0.41146700
C        5.23563600       0.76666600       2.51624000
C        6.28131700      -0.10973400       2.71577000
H        7.00464800       0.07441700       3.50411600
C        6.40935500      -1.26019700       1.90146800
H        7.22278400      -1.95587100       2.08220000
H        5.11356100       1.64749100       3.13885700
C        0.41572300       5.44814100      -1.09629700
C       -0.65660200       6.30337600      -1.23571000
H       -0.51332200       7.29663100      -1.64965500
C       -1.94887000       5.88779600      -0.83764400
H        1.41624100       5.74813200      -1.39231100
H       -2.78848400       6.56633800      -0.95201500
C       -2.60171600       1.97901000       0.94978000
C        3.69881800      -1.93917200      -1.44400300
C        5.51667200      -1.51998000       0.88292000
H        5.63942500      -2.41573800       0.29092200
C       -2.16806300       4.63351000      -0.30667200
H       -3.17247000       4.35854500      -0.01907300
F        3.59724400      -3.17044300      -0.89374600
F        4.97526700      -1.79427800      -1.90527600
F        2.90840700      -1.88358100      -2.51514200
F       -2.65805300       0.77757700       1.52198200
F       -2.93207100       2.88806800       1.91091500
F       -3.56334400       2.02775300      -0.00577100
