63
Properties=species:S:1:pos:R:3 pbc="F F F"
Si       0.36872700      -1.58426400       0.83724900
O       -1.21098500      -1.25254700      -0.24382400
C       -2.03082100      -2.10480700      -0.68188000
C       -3.26415000      -1.73688400      -1.33036500
H       -1.77967000      -3.16617400      -0.61914500
C       -3.59613500      -0.39497500      -1.61471600
C       -4.14279800      -2.77574700      -1.70607300
C       -4.79406200      -0.10008700      -2.25037700
H       -2.90413800       0.39333800      -1.34759800
C       -5.34521600      -2.47288600      -2.33720500
H       -3.87556900      -3.80635800      -1.48844500
C       -5.67056100      -1.13735300      -2.60709100
H       -5.05064700       0.93088600      -2.47392900
H       -6.02740600      -3.26808400      -2.62122400
H       -6.60811900      -0.90179000      -3.10305800
C       -3.11350700      -3.19675700       1.97266500
C       -1.90367300      -2.72973800       2.18969500
H       -3.28423400      -4.25120300       1.75905600
H       -3.98358800      -2.54454900       2.02951100
C       -0.70898400      -2.23136700       2.30417900
H       -0.24353000      -2.14803600       3.28624900
Cl       2.27743800      -1.55571800       1.97737000
Cl       0.74539300      -3.55331400      -0.10902500
O        1.11925700      -0.71975500      -0.69067400
O        0.09607000       0.24842800       1.56612300
C        1.71947200       1.45671700      -0.16740500
C        0.28080500       1.78267800      -0.14238200
C       -1.77481500       1.58147500       1.07230000
C        3.39855300      -0.14411200      -0.76872400
C        4.42459700       0.77720300      -0.41746500
C        2.66935300       2.40626900       0.09536700
C        4.04246500       2.08930900       0.03337000
C       -0.26537200       2.70775400      -0.98896200
C       -1.63037400       3.05342900      -0.89455900
C       -2.41274000       2.48306500       0.17056000
H        2.35058500       3.40082300       0.38701100
H        0.35986300       3.15345000      -1.75471800
N        2.10711500       0.17810000      -0.54259500
N       -0.50087800       1.19367200       0.84373100
C        5.03210700       3.03166300       0.39818300
C        6.36583600       2.68552200       0.34672100
H        7.12717500       3.40419100       0.63383900
C        6.74842500       1.38742900      -0.06826700
H        7.79976100       1.11765400      -0.08066200
H        4.72023500       4.01814200       0.72700700
C       -2.22846500       3.93446800      -1.82604700
C       -3.57164900       4.23062000      -1.73298800
H       -4.03450900       4.90030400      -2.45103300
C       -4.35437000       3.65140300      -0.70657000
H       -1.61315300       4.35901500      -2.61340800
H       -5.41635100       3.87011900      -0.65499300
C       -2.53578000       1.06989800       2.31625400
C        3.77090200      -1.45972500      -1.49692100
C        5.81009700       0.45276500      -0.45210200
H        6.13928800      -0.53364700      -0.74666300
C       -3.79814200       2.80547200       0.23014100
H       -4.43627000       2.37001200       0.98554900
F        4.39339700      -2.31172800      -0.65320300
F        4.64839200      -1.14846800      -2.49505800
F        2.75709500      -2.09625200      -2.08233800
F       -1.78965200       0.49873100       3.26117000
F       -3.15660100       2.12551400       2.91074200
F       -3.49645300       0.18859300       1.93272200
