63
Properties=species:S:1:pos:R:3 pbc="F F F"
Si      -0.36882000       1.58403000       0.83742900
O        1.21117400       1.25253400      -0.24336700
C        2.03083100       2.10493500      -0.68145400
C        3.26407100       1.73728300      -1.33028400
H        1.77964000       3.16626800      -0.61840000
C        3.59613500       0.39544500      -1.61491700
C        4.14249400       2.77630100      -1.70609000
C        4.79391200       0.10077000      -2.25095900
H        2.90433200      -0.39298900      -1.34768100
C        5.34476900       2.47366000      -2.33760000
H        3.87518400       3.80686000      -1.48831200
C        5.67017900       1.13820100      -2.60778100
H        5.05054700      -0.93015000      -2.47473700
H        6.02679500       3.26897800      -2.62168800
H        6.60760800       0.90282300      -3.10408000
C        3.11295800       3.19715500       1.97384100
C        1.90320200       2.72975500       2.19046400
H        3.98323700       2.54524300       2.03114400
H        3.28344700       4.25163000       1.76020100
C        0.70850100       2.23128700       2.30460100
H        0.24270400       2.14843600       3.28654600
Cl      -2.27774700       1.55530000       1.97737400
Cl      -0.74556300       3.55317000      -0.10877500
O       -1.11912000       0.71979200      -0.69060400
O       -0.09615600      -0.24871700       1.56611700
C       -1.71932200      -1.45681800      -0.16774900
C       -0.28066100      -1.78275900      -0.14267700
C        1.77483100      -1.58163300       1.07225700
C       -3.39837800       0.14412300      -0.76878900
C       -4.42442800      -0.77719900      -0.41757900
C       -2.66920800      -2.40639400       0.09491100
C       -4.04232200      -2.08937100       0.03307400
C        0.26563500      -2.70770400      -0.98930300
C        1.63062400      -3.05342200      -0.89472900
C        2.41287800      -2.48312600       0.17051600
H       -2.35045500      -3.40101200       0.38635700
H       -0.35946100      -3.15321700      -1.75528100
N       -2.10694900      -0.17813200      -0.54271600
N        0.50092300      -1.19388900       0.84362200
C       -5.03198100      -3.03172300       0.39783600
C       -6.36569300      -2.68548600       0.34654300
H       -7.12704600      -3.40415000       0.63364100
C       -6.74825300      -1.38731500      -0.06824200
H       -7.79957600      -1.11748500      -0.08051600
H       -4.72014600      -4.01827000       0.72649600
C        2.22880100      -3.93442900      -1.82618700
C        3.57197100      -4.23064300      -1.73295500
H        4.03489500      -4.90036400      -2.45092400
C        4.35456900      -3.65146300      -0.70643100
H        1.61354900      -4.35892900      -2.61361800
H        5.41655000      -3.87016300      -0.65473500
C        2.53572800      -1.07019900       2.31632300
C       -3.77074900       1.45975500      -1.49698100
C       -5.80990700      -0.45265700      -0.45205700
H       -6.13905700       0.53380600      -0.74651200
C        3.79824600      -2.80555200       0.23025100
H        4.43630800      -2.37010700       0.98572900
F       -4.39308900       2.31184200      -0.65329600
F       -4.64831800       1.14844900      -2.49500500
F       -2.75692600       2.09619900      -2.08257200
F        1.78961400      -0.49936000       3.26138500
F        3.15675200      -2.12588100       2.91052100
F        3.49631400      -0.18869500       1.93291800
