69
Properties=species:S:1:pos:R:3 pbc="F F F"
Si      -0.61871900      -0.96698900      -0.69755100
O       -2.37854000      -1.11201100      -0.02774800
C       -2.96384600      -2.10219800       0.48770600
C       -4.38651800      -2.11151000       0.70618800
H       -2.37703500      -2.95906400       0.82838500
C       -5.20821200      -1.02881700       0.31992800
C       -4.94889600      -3.24333300       1.33432000
C       -6.57391100      -1.08816500       0.56272400
H       -4.76089800      -0.16584200      -0.16176100
C       -6.31845700      -3.29344400       1.57348700
H       -4.30403400      -4.06952300       1.62220400
C       -7.12813400      -2.21741200       1.18765400
H       -7.21518300      -0.26228700       0.26993000
H       -6.75779500      -4.16144400       2.05528600
H       -8.19799800      -2.25643400       1.37345100
C       -2.80574800      -4.07677700      -1.87847300
C       -1.81739600      -3.21842400      -2.00797800
H       -2.65885700      -5.03988600      -1.39057900
H       -3.79536200      -3.86224700      -2.28045700
C       -0.88043600      -2.31816400      -2.04613700
H       -0.20715000      -2.26398100      -2.89972800
Cl      -1.41165300       0.62821400      -2.12036900
Cl       0.20245800      -2.41611600       0.85061200
O       -0.38255300       0.30210200       0.69951500
O        1.11227700      -0.51529700      -1.35117900
C        1.26942400       1.75303300       0.00121900
C        2.19937100       0.64384800       0.32656500
C        3.05685100      -1.46509000      -0.43788200
C       -0.96166900       2.55691500       0.38098800
C       -0.60115100       3.82426500      -0.15598400
C        1.68860500       2.94977100      -0.53581800
C        0.73548900       4.00809400      -0.65824400
C        3.12276600       0.73149100       1.34516700
C        4.05400800      -0.33916900       1.51326200
C        4.04195700      -1.44303900       0.59042200
N       -0.05424200       1.56750900       0.37310800
N        2.14969100      -0.47442100      -0.49609300
C        1.08928300       5.25156600      -1.23502300
C        0.16819700       6.27492800      -1.32573700
H        0.45376400       7.22178000      -1.77366500
C       -1.14606100       6.09323800      -0.84321500
H       -1.86957400       6.89789800      -0.92879100
H        2.09460600       5.39940900      -1.60981200
C        5.00798600      -0.32389600       2.55925100
C        5.91246000      -1.35519300       2.70470300
H        6.63647200      -1.33073400       3.51334700
C        5.89556400      -2.44518800       1.80784400
H        5.02604900       0.50728300       3.25319000
H        6.60132300      -3.26021000       1.93394700
C        3.08169200      -2.59316700      -1.49548200
C       -2.35785000       2.35506600       1.01676800
C       -1.52685600       4.90078600      -0.26699100
H       -2.54450000       4.79227300       0.07871500
C        4.98849800      -2.49238300       0.77133400
H        4.99921700      -3.34857300       0.11304100
F       -3.32623400       2.48692200       0.07961100
F       -2.53922600       3.34002900       1.94372700
F       -2.55490500       1.19992600       1.65485500
F        2.23540800      -2.46406600      -2.51959000
F        4.33294300      -2.63358500      -2.03721100
F        2.84549400      -3.78984300      -0.90818600
C        3.15777400       1.91772300       2.27065500
H        3.07942800       1.57606500       3.30839100
H        4.11240700       2.44666900       2.16952400
H        2.34774600       2.62030800       2.07791000
C        3.10972100       3.14625400      -0.98764100
H        3.12074400       3.43675700      -2.04385700
H        3.57983000       3.95676700      -0.41938900
H        3.70923000       2.24314900      -0.87386100
