69
Properties=species:S:1:pos:R:3 pbc="F F F"
Si      -0.55571900      -1.03275100      -0.84438300
O       -2.37139400      -1.37487000      -0.20675400
C       -2.93604000      -2.49342200      -0.14123200
C       -4.28503900      -2.65555600       0.32941300
H       -2.39338600      -3.39085000      -0.46162100
C       -5.07762800      -1.55233800       0.72274200
C       -4.81074100      -3.96516500       0.38180300
C       -6.37558900      -1.76769200       1.16318500
H       -4.66123800      -0.55271200       0.67048500
C       -6.11319400      -4.17042800       0.82639600
H       -4.19083700      -4.80301100       0.07360800
C       -6.89209100      -3.07357700       1.21542500
H       -6.99450800      -0.92835100       1.46546700
H       -6.52435300      -5.17414000       0.86960400
H       -7.91002800      -3.23350500       1.56019500
C        1.25868300      -2.01088100       2.72785800
C        0.71363800      -2.17480300       1.54761300
H        0.65002100      -1.99280600       3.63089600
H        2.33448400      -1.89315200       2.84539000
C        0.17193600      -2.35135300       0.37172200
H        0.09624400      -3.38064200       0.01755100
Cl      -1.53996800       0.49239300      -2.15568600
Cl      -0.70697600      -2.55111600      -2.49711300
O       -0.47011300       0.21942200       0.61300500
O        1.09403700      -0.33691200      -1.48750100
C        1.04481600       1.84564200      -0.00426800
C        2.06713000       0.80687100       0.27203100
C        3.05761500      -1.21762800      -0.55546000
C       -1.24878700       2.42003300       0.40841500
C       -1.01609300       3.73152100      -0.09202000
C        1.34980800       3.10092000      -0.47920400
C        0.29837100       4.06506400      -0.57451000
C        2.96530900       0.90373500       1.31161800
C        3.91778800      -0.14684800       1.48596900
C        3.97114600      -1.22428600       0.53463900
N       -0.25612900       1.51640300       0.35558000
N        2.10461900      -0.27156400      -0.60103600
C        0.52852500       5.35563300      -1.10872900
C       -0.49189700       6.28178800      -1.18111300
H       -0.30104200       7.26575300      -1.59831600
C       -1.78568300       5.95098500      -0.72296000
H       -2.58812300       6.67813100      -0.79794300
H        1.51620800       5.61538500      -1.46957200
C        4.80909000      -0.15741300       2.58620300
C        5.69601100      -1.19879200       2.76595600
H        6.36598400      -1.19712800       3.62020100
C        5.72404600      -2.27499700       1.85227100
H        4.78474900       0.65513100       3.30177800
H        6.40411100      -3.10514700       2.01504800
C        3.19865500      -2.24314200      -1.70452700
C       -2.60437800       2.06501900       1.05838600
C       -2.04713700       4.70921600      -0.18517700
H       -3.05217600       4.48380300       0.14150600
C        4.88965900      -2.28949700       0.75560100
H        4.92192500      -3.13646300       0.08527400
F       -3.59518000       2.07756600       0.13490500
F       -2.89054500       3.02427700       1.98563500
F       -2.65473400       0.89706000       1.70549700
F        2.53318100      -1.94808600      -2.82141500
F        4.51395300      -2.31404300      -2.05629800
F        2.81631100      -3.47272000      -1.28517300
C        2.92575400       2.05651100       2.27665900
H        2.79772300       1.67844700       3.29705500
H        3.87426200       2.60469700       2.24511100
H        2.11432300       2.75093900       2.06161900
C        2.75312400       3.45477200      -0.88808200
H        2.75819200       3.82024100      -1.92051300
H        3.13944600       4.25943800      -0.25160200
H        3.42874100       2.60189900      -0.82218200
