69
Properties=species:S:1:pos:R:3 pbc="F F F"
Si       0.30445100      -1.76873300       1.04766600
O       -1.41599400      -1.41157600       0.17921700
C       -1.67719400      -1.31182700      -1.05015800
C       -3.02720500      -1.20752500      -1.54035900
H       -0.86155600      -1.22316500      -1.77239100
C       -4.14450600      -1.32577400      -0.68486500
C       -3.20843700      -0.93942700      -2.91391200
C       -5.42215700      -1.17366600      -1.20517300
H       -3.98935000      -1.53742800       0.36777100
C       -4.49221300      -0.78205600      -3.42514100
H       -2.33886000      -0.85324000      -3.56014800
C       -5.59607200      -0.89938600      -2.57119500
H       -6.28777200      -1.26364200      -0.55613000
H       -4.63860300      -0.57129000      -4.47992000
H       -6.59921300      -0.77857900      -2.97062400
C       -1.03040400      -4.17151200      -1.88107400
C       -0.27811900      -3.87687700      -0.84224900
H       -0.68171800      -4.00046600      -2.89902800
H       -2.01171700      -4.62766900      -1.75556400
C        0.40963500      -3.49576000       0.19264800
H        1.11763000      -4.18064300       0.66054400
Cl      -0.84359300      -2.50775800       2.79064000
Cl       2.27263900      -1.84847500       2.05795800
O        1.09158300      -0.97314100      -0.55490800
O        0.17736000       0.03311100       1.73515300
C        1.51190500       1.26596900      -0.17697600
C        0.03680000       1.39975900      -0.12385300
C       -1.82531800       1.21623300       1.37716100
C        3.31357900      -0.24104000      -0.67280200
C        4.24754600       0.82656500      -0.52715500
C        2.35702900       2.33796100       0.00436900
C        3.76156400       2.12921900      -0.15602600
C       -0.70736800       2.05214300      -1.08195800
C       -2.10683100       2.22651200      -0.85010400
C       -2.66618200       1.84971800       0.42230500
N        2.00550600       0.00176600      -0.47180200
N       -0.56553200       0.90586600       1.02488900
C        4.68456800       3.18885400       0.01822600
C        6.03644100       2.98503700      -0.16635700
H        6.73225400       3.80678600      -0.02767400
C        6.51612100       1.71079800      -0.53789300
H        7.58039200       1.55473200      -0.68335600
H        4.32386100       4.17158600       0.29587900
C       -2.95443900       2.78325800      -1.83616800
C       -4.30302100       2.94735900      -1.59435600
H       -4.94390600       3.36287400      -2.36573400
C       -4.85476900       2.57001800      -0.35088700
H       -2.54049900       3.07457900      -2.79361600
H       -5.91951600       2.68522200      -0.17504900
C       -2.33455400       0.92088100       2.80569600
C        3.81516200      -1.62820800      -1.13983600
C        5.64887700       0.65483700      -0.71819800
H        6.05617800      -0.30411500      -1.00174000
C       -4.05928500       2.04392400       0.64300300
H       -4.51596800       1.74521100       1.57551300
F        4.73730400      -2.10354000      -0.26819400
F        4.43286900      -1.46079800      -2.34758700
F        2.89503300      -2.57561800      -1.30867600
F       -1.39062900       0.60464600       3.69151600
F       -2.93300800       2.05356500       3.27538000
F       -3.26719000      -0.05917900       2.78690700
C       -0.07188100       2.55171200      -2.34896300
H       -0.58049600       2.11551500      -3.21565100
H       -0.17904400       3.64016700      -2.42013200
H        0.98654800       2.29721200      -2.40691000
C        1.82719700       3.70168200       0.35548700
H        2.31461800       4.06283700       1.26733400
H        2.05894900       4.41181300      -0.44667600
H        0.75004800       3.70137800       0.51896200
