69
Properties=species:S:1:pos:R:3 pbc="F F F"
Si       0.32749100      -1.89196800       0.42713400
O       -1.31211200      -1.21174800      -0.55389100
C       -2.46527300      -1.69786800      -0.55422500
C       -3.54903000      -1.10591900      -1.29437500
H       -2.67626400      -2.58916900       0.04851400
C       -3.34876500      -0.00336600      -2.15578600
C       -4.84331900      -1.63414100      -1.10356600
C       -4.43499000       0.56047200      -2.80741300
H       -2.34649200       0.38547200      -2.29897000
C       -5.92919000      -1.05433100      -1.75286000
H       -4.98161800      -2.48270600      -0.43890800
C       -5.72359000       0.03965800      -2.60200100
H       -4.29257700       1.40722800      -3.47125000
H       -6.92928400      -1.44921800      -1.60420700
H       -6.57095000       0.49056000      -3.11102900
C       -1.94662000      -5.08679600       1.51354300
C       -1.31404400      -3.94702300       1.65210300
H       -3.00230300      -5.12172200       1.24654700
H       -1.43342900      -6.03663100       1.65858900
C       -0.68242900      -2.81138200       1.77700300
H       -0.66541500      -2.33450700       2.75626200
Cl       2.27715700      -2.20236300       1.42756400
Cl       0.45128400      -3.50372200      -1.04937500
O        1.07636600      -0.70780100      -0.88036000
O        0.10662400      -0.25015500       1.55696800
C        1.63271600       1.30816400       0.11547800
C        0.17239200       1.55833600       0.13277000
C       -1.82538000       1.06146700       1.36109200
C        3.34400000      -0.10213100      -0.80020100
C        4.34331700       0.74679900      -0.24700400
C        2.54363600       2.19306700       0.64863600
C        3.93493300       1.89750800       0.51417800
C       -0.44910500       2.52664300      -0.62455200
C       -1.85633000       2.71576900      -0.46017700
C       -2.55653300       1.98346000       0.56248600
N        2.05029900       0.15116000      -0.52971900
N       -0.54420600       0.79535300       1.04225500
C        4.92398700       2.72882200       1.09264200
C        6.26444000       2.43748500       0.94409000
H        7.01174500       3.08082700       1.39834800
C        6.66766300       1.30128800       0.20919600
H        7.72323400       1.06895300       0.10899000
H        4.62374400       3.60018200       1.66126800
C       -2.58174900       3.61207800      -1.28187800
C       -3.94512400       3.76012900      -1.13215200
H       -4.48908300       4.44261800      -1.77776300
C       -4.63894200       3.01086700      -0.15737400
H       -2.06138100       4.17627100      -2.04622300
H       -5.71670900       3.10387800      -0.06993700
C       -2.46911900       0.36058800       2.57313700
C        3.75307900      -1.22944000      -1.77874600
C        5.73556500       0.47564000      -0.38088500
H        6.07918800      -0.39247100      -0.92445700
C       -3.96574100       2.14877100       0.67966300
H       -4.52941100       1.56957100       1.39667100
F        4.47592300      -2.17833700      -1.14086500
F        4.55445100      -0.67093100      -2.73494900
F        2.75709600      -1.82665800      -2.42900100
F       -1.60057200      -0.13745600       3.46160400
F       -3.23116800       1.25289100       3.25588800
F       -3.28510400      -0.64670400       2.16025000
C        0.32067600       3.34410200      -1.62418600
H       -0.12905100       3.23653700      -2.61719900
H        0.27494300       4.40585900      -1.35531700
H        1.36639900       3.04303500      -1.68551700
C        2.09546000       3.43565700       1.36790700
H        2.52632700       3.45580800       2.37474800
H        2.45400900       4.32585100       0.83843700
H        1.01117000       3.49532800       1.45822700
