69
Properties=species:S:1:pos:R:3 pbc="F F F"
Si       0.26587500      -1.72093700       0.82173900
O       -1.33485200      -1.32187400      -0.21495800
C       -2.18900800      -2.14931100      -0.63389000
C       -3.42661300      -1.74959600      -1.25530100
H       -1.96792800      -3.21755200      -0.57580200
C       -3.72694600      -0.40200400      -1.54698300
C       -4.34389400      -2.76689000      -1.59617100
C       -4.93288900      -0.08042300      -2.15459500
H       -3.00522600       0.36878700      -1.30919000
C       -5.55383400      -2.43701800      -2.19840500
H       -4.10008800      -3.80206600      -1.37287400
C       -5.84800700      -1.09569100      -2.47521700
H       -5.16638700       0.95444700      -2.38451700
H       -6.26577900      -3.21544100      -2.45457700
H       -6.79142700      -0.83855600      -2.94887700
C       -3.25088200      -3.21786700       2.03825300
C       -2.01576700      -2.80484700       2.21945800
H       -3.47143100      -4.25939400       1.80748600
H       -4.09165700      -2.53364100       2.14090500
C       -0.79678000      -2.36186000       2.30319600
H       -0.29702000      -2.32536100       3.27126900
Cl       2.20154800      -1.79207100       1.91894600
Cl       0.55664500      -3.68455800      -0.17391000
O        1.00078700      -0.85645700      -0.71039700
O        0.07743400       0.10149300       1.59775600
C        1.71704000       1.25486000      -0.08882300
C        0.28002400       1.61916200      -0.12072600
C       -1.75530700       1.49025900       1.14127300
C        3.29987400      -0.40041800      -0.80497500
C        4.37100000       0.43081500      -0.37863300
C        2.70424400       2.13576500       0.29555800
C        4.06542200       1.70925000       0.20757700
C       -0.25048900       2.50947200      -1.02700700
C       -1.62666200       2.87300200      -0.89438900
C       -2.38485500       2.38100900       0.22529900
N        2.03790800      -0.01375200      -0.54976600
N       -0.50134100       1.07216200       0.88953400
C        5.12699900       2.52727900       0.66289800
C        6.43591000       2.09999000       0.56989700
H        7.23890100       2.73546100       0.93053200
C        6.73527300       0.83475200       0.01846500
H        7.76537700       0.49606400      -0.02950000
H        4.90786600       3.49532600       1.09630700
C       -2.25931400       3.71791300      -1.83832200
C       -3.59109500       4.05265500      -1.70501000
H       -4.06444200       4.69481000      -2.44127400
C       -4.34253400       3.55334000      -0.61936000
H       -1.69128900       4.09921300      -2.67817200
H       -5.39543100       3.80167800      -0.53057200
C       -2.49887500       1.02583900       2.41138600
C        3.58272200      -1.68349600      -1.62155300
C        5.73188700       0.01759100      -0.45452200
H        5.99042300      -0.95303900      -0.85344500
C       -3.75852600       2.74240200       0.32964300
H       -4.36935200       2.36016700       1.13445000
F        4.14961400      -2.63329100      -0.84570800
F        4.47425600      -1.36330900      -2.60537600
F        2.52556700      -2.21026300      -2.24148000
F       -1.75462700       0.42034800       3.33663700
F       -3.04268600       2.11833900       3.01792300
F       -3.51908900       0.19451600       2.07052900
C        0.58614100       3.08337500      -2.13713900
H        0.11279700       2.87633600      -3.10295700
H        0.65432000       4.17201900      -2.03020400
H        1.59427500       2.66957100      -2.15265200
C        2.36729300       3.50703400       0.81345800
H        2.79861500       3.64220800       1.81125400
H        2.80154000       4.27287500       0.16067500
H        1.29226400       3.67262800       0.87945000
