69
Properties=species:S:1:pos:R:3 pbc="F F F"
Si      -0.56279000      -1.06543000      -0.60962800
O       -2.25440100      -1.33239700       0.24298200
C       -3.33470800      -1.57843600      -0.35205400
C       -4.55332700      -1.86475000       0.35170100
H       -3.36021200      -1.55777100      -1.44628100
C       -4.61326500      -1.89921900       1.76386800
C       -5.71158100      -2.11122000      -0.41746400
C       -5.82103700      -2.17705800       2.38791200
H       -3.71341700      -1.70890600       2.33941100
C       -6.91768700      -2.38887200       0.21774900
H       -5.64805600      -2.08196000      -1.50206700
C       -6.97037900      -2.42117100       1.61690900
H       -5.88026200      -2.20699100       3.47160300
H       -7.81243100      -2.57943100      -0.36659100
H       -7.91211900      -2.63810700       2.11361300
C       -2.29880500      -4.53870900      -1.59227300
C       -1.52792300      -3.49684000      -1.80114500
H       -3.35980600      -4.51859800      -1.83991800
H       -1.89754400      -5.46360900      -1.17917900
C       -0.79073400      -2.43175700      -1.94242500
H       -0.27174500      -2.25332700      -2.88340300
Cl      -1.49645700       0.46750800      -2.05877600
Cl       0.29958400      -2.42409200       0.95475200
O       -0.36148600       0.27391000       0.73403500
O        1.12082900      -0.54725300      -1.31484700
C        1.21083500       1.76849800      -0.05091000
C        2.19497300       0.71443900       0.29491600
C        3.11284800      -1.39351400      -0.39844500
C       -1.04200700       2.49137900       0.35676200
C       -0.74784500       3.75349400      -0.23117300
C        1.56579400       2.96132100      -0.64021200
C        0.56563100       3.97301000      -0.77830900
C        3.14074300       0.88379300       1.28256700
C        4.12248800      -0.13778800       1.46603000
C        4.12866600      -1.28175700       0.59340300
N       -0.09532200       1.53871400       0.35710900
N        2.17041800      -0.43824600      -0.47921100
C        0.85102300       5.20688300      -1.41093700
C       -0.11378300       6.18823600      -1.51123400
H        0.11930300       7.12808000      -2.00226300
C       -1.40433900       5.97285100      -0.98096300
H       -2.16220200       6.74457100      -1.07212400
H        1.83844800       5.38090700      -1.82064400
C        5.11042100      -0.03385800       2.47502000
C        6.06689700      -1.01576300       2.63009400
H        6.81692800      -0.92284200       3.40952000
C        6.07151000      -2.14243700       1.77967700
H        5.11666700       0.82767100       3.13123000
H        6.82108400      -2.91640700       1.91135300
C        3.15049700      -2.57242100      -1.39895400
C       -2.41220100       2.25594700       1.03491300
C       -1.71910400       4.78836500      -0.35081500
H       -2.72067700       4.65343700       0.03085100
C        5.13102800      -2.27656000       0.78139300
H        5.16213200      -3.15680600       0.15622300
F       -3.40930700       2.32220100       0.12115200
F       -2.60785900       3.25963600       1.93815600
F       -2.54713100       1.11251500       1.70941600
F        2.24593000      -2.55017600      -2.37843800
F        4.37403800      -2.56774700      -2.00369200
F        3.01935400      -3.74798600      -0.74012700
C        2.96874000       3.20009500      -1.12684300
H        2.94970200       3.46595800      -2.18925600
H        3.42001200       4.03912300      -0.58533100
H        3.60254700       2.32184900      -1.00406600
C        3.14977100       2.11151000       2.15311000
H        3.13964800       1.81605000       3.20756900
H        4.06654600       2.68754000       1.98139000
H        2.29207900       2.75801900       1.96951100
