75
Properties=species:S:1:pos:R:3 pbc="F F F"
Si      -0.32721000      -1.67623200      -0.81211800
O        1.22310100      -1.23166500       0.31288600
C        1.99716300      -1.99072000       0.94800600
C        3.19689600      -1.50730900       1.58765700
H        1.74321700      -3.04903400       1.05377400
C        3.52992600      -0.13580000       1.61223100
C        4.04202900      -2.45033800       2.20956400
C        4.69757900       0.27979900       2.23627000
H        2.86520400       0.58192400       1.14871700
C        5.21386800      -2.02749400       2.83043700
H        3.77362200      -3.50330100       2.18973600
C        5.54130000      -0.66554200       2.84162100
H        4.95610600       1.33419200       2.25695200
H        5.87096600      -2.74976100       3.30481900
H        6.45541400      -0.33632400       3.32796800
C        3.12028600      -3.59402300      -1.52261100
C        1.98928200      -3.03164900      -1.88705800
H        4.05136800      -3.03006300      -1.50334200
H        3.16387500      -4.64977000      -1.25704400
C        0.85414900      -2.45024600      -2.14029600
H        0.49239200      -2.38419400      -3.16710100
Cl      -2.16242400      -1.87953000      -2.05811300
Cl      -0.66861900      -3.61926100       0.30654300
O       -1.16943400      -0.81338600       0.61214300
O       -0.13136700       0.03507400      -1.63424700
C       -1.74978300       1.37353500       0.05300700
C       -0.31537500       1.70120000      -0.03735400
C        1.74078400       1.41015100      -1.28925600
C       -3.44809000      -0.25868900       0.63699400
C       -4.44059700       0.76306000       0.51662100
C       -2.68959400       2.35318700      -0.11213700
C       -4.05921100       2.08326000       0.10302200
C        0.22375300       2.72298600       0.69487200
C        1.55591600       3.14014700       0.47536400
C        2.31309900       2.50197000      -0.56529600
H       -2.36669400       3.34750800      -0.39817300
C       -5.03737600       3.09520700      -0.04608300
H       -0.38950100       3.21694400       1.43986200
C        2.13367200       4.17993000       1.24305000
C        3.63019800       2.97437300      -0.81337600
C        2.42908000       0.65833000      -2.40871200
N       -2.16061800       0.09015600       0.39719800
N        0.47502100       1.04691000      -0.97473400
C       -3.72081500      -1.67553000       1.09174400
C       -5.81005000       0.52753300       0.81069100
C       -6.36213400       2.82280900       0.22740300
C       -6.74352400       1.53447400       0.66799500
H       -6.13264100      -0.44019300       1.16007400
H       -4.72328600       4.08402000      -0.36783400
H       -7.11344500       3.59881600       0.11511500
H       -7.78482600       1.33258100       0.89983100
C        3.42426800       4.59510000       0.98814800
C        4.16871900       3.99118800      -0.05156600
H        4.22504400       2.54321300      -1.60297200
H        1.54129000       4.64202500       2.02717400
H        3.86851900       5.39115200       1.57805800
H        5.17876200       4.33234400      -0.25701300
C       -4.00279100      -1.69477800       2.61217100
C       -4.80360700      -2.42960200       0.28130400
H       -2.79454900      -2.22135900       0.94172700
C        3.71644400      -0.07402700      -1.97823700
H        1.73896500      -0.12547600      -2.71190500
C        2.62765200       1.56514800      -3.64469500
H       -4.11787400      -2.73724300       2.92838500
H       -3.17000300      -1.25344400       3.17050900
H       -4.91985600      -1.15201700       2.86205100
H       -4.54677200      -3.49356300       0.29442100
H       -5.80376300      -2.32952000       0.71249600
H       -4.82920400      -2.10114300      -0.76040500
H        3.52972200      -0.70291400      -1.10592400
H        4.01883000      -0.72330700      -2.80612600
H        4.55007300       0.59271500      -1.74860900
H        3.02713300       0.95003800      -4.45825700
H        1.67037300       1.98679100      -3.96979800
H        3.32230200       2.38957800      -3.46330300
