75
Properties=species:S:1:pos:R:3 pbc="F F F"
Si       0.18430700      -1.12796300       0.87607300
O        2.02626600      -1.78604200       0.51843100
C        2.51665900      -1.95111000      -0.62298100
C        3.90770200      -2.25110400      -0.83810300
H        1.87163500      -1.84563600      -1.50387400
C        4.81991600      -2.36418200       0.23574900
C        4.35234800      -2.39924100      -2.16970300
C        6.15718500      -2.62337000      -0.02986200
H        4.46152400      -2.24179500       1.25271100
C        5.69514200      -2.65969500      -2.42577200
H        3.63956600      -2.30550100      -2.98513400
C        6.59370400      -2.77101300      -1.35738500
H        6.86778300      -2.71106500       0.78635400
H        6.04503700      -2.77487400      -3.44694100
H        7.64255200      -2.97289800      -1.55677000
C       -0.16737700      -4.67818700      -1.04144500
C       -0.37436800      -3.40068200      -0.83988600
H        0.68265300      -5.02951600      -1.62513400
H       -0.84096700      -5.42746700      -0.62709900
C       -0.56036700      -2.13090500      -0.60423000
H       -1.14197400      -1.56820000      -1.33608700
Cl       1.22393000       0.15162200       2.41353400
Cl      -0.04857800      -2.77226900       2.37252400
O        0.47668400       0.20329300      -0.47350700
O       -1.36638400      -0.25099400       1.38907300
C       -0.91762900       2.01108000      -0.06196400
C       -2.07210000       1.13275300      -0.34109200
C       -3.40889800      -0.77801200       0.34635000
C        1.49111400       2.29259200      -0.12581600
C        1.31353400       3.69580500       0.07068700
C       -1.10564900       3.34013400       0.20131700
C       -0.00477500       4.22216000       0.28326500
C       -2.98706100       1.47706400      -1.29767800
C       -4.16827500       0.72172000      -1.47393100
C       -4.39814500      -0.40746300      -0.61733200
H       -2.11605900       3.71431500       0.32081600
C       -0.18835200       5.60484000       0.52422700
H       -2.80064200       2.34972800      -1.91320300
C       -5.12689800       1.08356100      -2.45018000
C       -5.62365200      -1.11187800      -0.75986100
C       -3.53210800      -1.93891100       1.31075500
N        0.37870400       1.52322600      -0.19362300
N       -2.30279800      -0.00052500       0.43385200
C        2.82596400       1.60724000      -0.32726400
C        2.40129000       4.60880100       0.05016500
C        0.89609900       6.45806500       0.52555100
C        2.19326200       5.95533900       0.27189600
H        3.40022000       4.25905800      -0.15749600
H       -1.19359400       5.97825700       0.69547000
H        0.75494100       7.51919600       0.70792600
H        3.03836400       6.63658000       0.24801400
C       -6.29788700       0.36399400      -2.57127100
C       -6.54660200      -0.73231400      -1.71367700
H       -5.85174800      -1.94423700      -0.11331300
H       -4.92621600       1.93880100      -3.08859300
H       -7.03537000       0.64297600      -3.31791300
H       -7.47771000      -1.28357500      -1.80286500
C        3.34974900       1.85781200      -1.75908600
C        3.89370000       1.90307800       0.75177100
H        2.61459200       0.54737100      -0.24918300
C       -3.71252700      -3.31611000       0.63373000
H       -2.58563500      -1.99444400       1.84218400
C       -4.61111600      -1.64667600       2.37970400
H        4.26460900       1.27248000      -1.90321300
H        2.61359100       1.54196600      -2.50641400
H        3.58317600       2.91474100      -1.92233100
H        4.56744200       1.04100100       0.79482900
H        4.50285400       2.78069400       0.52032000
H        3.44112300       2.03145300       1.73800300
H       -3.01215400      -3.43535800      -0.19679900
H       -3.48343000      -4.08068300       1.38340200
H       -4.72684900      -3.49848500       0.27219500
H       -4.59420300      -2.46052000       3.11251600
H       -4.39493100      -0.70802800       2.90134600
H       -5.61684600      -1.58392100       1.95479200
