75
Properties=species:S:1:pos:R:3 pbc="F F F"
Si       0.27835700      -1.17652000       0.46943200
O        1.96807200      -1.58536800      -0.34372000
C        2.93389900      -2.25914000       0.09892100
C        4.23500500      -2.21981100      -0.52274100
H        2.77912100      -2.92477800       0.95290100
C        4.49971600      -1.40216300      -1.64316700
C        5.25690200      -3.02100300       0.02740500
C        5.77395200      -1.38503900      -2.19434100
H        3.70146400      -0.79958700      -2.06373500
C        6.53117300      -2.99966200      -0.53213500
H        5.04044200      -3.64488700       0.89073400
C        6.78882600      -2.18151100      -1.63921300
H        5.98622400      -0.75866500      -3.05557600
H        7.32213600      -3.61314800      -0.11187300
H        7.78393700      -2.16382100      -2.07505600
C        3.65033500      -0.54620200       2.56455500
C        2.40390500      -0.29004300       2.23564200
H        3.88790900      -1.30950400       3.30467800
H        4.47758000       0.01042600       2.12857000
C        1.17478400      -0.12535800       1.84506800
H        0.55198200       0.60107100       2.36917800
Cl      -0.64131300      -2.34302300      -1.21223800
Cl       0.27177400      -3.04299300       1.78203900
O       -1.33675000      -0.60541300       1.19634800
O        0.19708000       0.23629100      -0.78650900
C       -2.33356800       0.96498900      -0.19776000
C       -1.20202700       1.87285000       0.07447500
C        1.15702600       2.32383400      -0.27986900
C       -3.44213300      -1.13503300       0.30861900
C       -4.57124400      -0.69824100      -0.45108200
C       -3.38276700       1.37964900      -0.97059500
C       -4.52715300       0.56594500      -1.12974500
C       -1.41081500       3.13042500       0.56926400
C       -0.34769800       4.05887200       0.64811900
C        0.94858200       3.66293700       0.17347700
H       -3.32933200       2.34945100      -1.45186600
C       -5.62679100       0.99302100      -1.91196700
H       -2.41004600       3.41398300       0.87972800
C       -0.55617100       5.37051000       1.13753900
C        1.98141200       4.63776600       0.16393500
C        2.46570600       1.78320800      -0.81719400
N       -2.38903400      -0.28927000       0.40143600
N        0.08492100       1.49700000      -0.29841600
C       -3.36483100      -2.43776000       1.07468700
C       -5.76075400      -1.46794500      -0.55169000
C       -6.75658900       0.20633000      -2.00653200
C       -6.82386500      -1.02329200      -1.31175600
H       -5.84973200      -2.40307200      -0.02198400
H       -5.56647700       1.94885500      -2.42410800
H       -7.60103600       0.53427300      -2.60543500
H       -7.72434800      -1.62673200      -1.37343800
C        0.47884800       6.28311700       1.13745500
C        1.74808900       5.91406100       0.63546600
H        2.95678600       4.39427000      -0.22674200
H       -1.54316000       5.64401400       1.49877800
H        0.31835000       7.29021600       1.51044100
H        2.55128600       6.64440600       0.61661400
C       -4.24672200      -2.35999800       2.34242200
C       -3.64469400      -3.70749200       0.23528900
H       -2.33711800      -2.52382100       1.41550400
C        3.68987000       1.96997100       0.11036200
H        2.31905200       0.71271100      -0.92517700
C        2.71844400       2.34339100      -2.23667900
H       -4.11485200      -3.28611700       2.91217500
H       -3.94612800      -1.51779200       2.97491800
H       -5.30735100      -2.25100400       2.09542200
H       -3.10184100      -4.53653000       0.70072700
H       -4.70298600      -3.98079400       0.21192700
H       -3.28141100      -3.59880400      -0.78947700
H        3.40749800       1.94047200       1.16523200
H        4.38359300       1.14563100      -0.08128500
H        4.23173000       2.89931300      -0.08440000
H        3.63740400       1.89586900      -2.63128300
H        1.89191700       2.09175900      -2.90966800
H        2.84222300       3.43059800      -2.22256700
