75
Properties=species:S:1:pos:R:3 pbc="F F F"
Si       0.50652900      -0.91562600       0.62741000
O        2.31990200      -0.96489900       0.00242700
C        2.94584100      -1.90210700      -0.55935900
C        4.37843700      -1.87310200      -0.71795900
H        2.39012600      -2.74027300      -0.98805600
C        5.16591600      -0.82610600      -0.19063500
C        4.98551300      -2.92841200      -1.43058600
C        6.54139500      -0.84168000      -0.38043800
H        4.68530600      -0.02516000       0.36086200
C        6.36454300      -2.93539100      -1.61757800
H        4.36778200      -3.73071600      -1.82561900
C        7.13998200      -1.89357500      -1.09310200
H        7.15567900      -0.04225300       0.02298600
H        6.83734000      -3.74493400      -2.16503800
H        8.21691600      -1.89967900      -1.23707500
C        2.75696500      -4.08027300       1.61332400
C        1.74233400      -3.25892600       1.77609800
H        2.65522400      -4.99790600       1.03457600
H        3.72395600      -3.88093900       2.07392000
C        0.78276100      -2.38527600       1.85274100
H        0.07873800      -2.42403600       2.68527500
Cl       1.22648500       0.55890200       2.21907400
Cl      -0.18977700      -2.26831000      -1.08398300
O        0.27581700       0.41463700      -0.65045700
O       -1.20450700      -0.60144900       1.28149700
C       -1.45596100       1.80805100       0.02196500
C       -2.39323300       0.69665200      -0.23537200
C       -3.14613100      -1.53414600       0.35834000
C        0.78756400       2.68154700      -0.30276700
C        0.31181100       3.97918900       0.06303200
C       -1.91838000       3.03013400       0.42477000
C       -1.05225000       4.14507700       0.48028900
C       -3.45961500       0.87586500      -1.07285400
C       -4.44164900      -0.12963000      -1.21689000
C       -4.30208800      -1.34115700      -0.45936100
H       -2.96658600       3.13865900       0.67912200
C       -1.52408000       5.41509100       0.88991200
H       -3.55111600       1.81042700      -1.61416600
C       -5.56197500       0.05891400      -2.06103100
C       -5.34256900      -2.30429600      -0.54804300
C       -2.87065500      -2.76776400       1.19414700
N       -0.10566300       1.66455500      -0.27833200
N       -2.26129300      -0.51199300       0.43815800
C        2.18906200       2.38002800      -0.79916600
C        1.14034400       5.13262500       0.03158900
C       -0.68139700       6.50726900       0.87030100
C        0.65337900       6.36199700       0.42770500
H        2.15980800       5.06258600      -0.31222200
H       -2.55806900       5.51132800       1.20774800
H       -1.04360600       7.48199800       1.18326200
H        1.30629600       7.22885500       0.39562600
C       -6.54054900      -0.91037200      -2.14053000
C       -6.43187000      -2.09002200      -1.36843400
H       -5.29987000      -3.20761900       0.03944900
H       -5.63853700       0.98011500      -2.63124700
H       -7.40177300      -0.76518100      -2.78585000
H       -7.21700600      -2.83837800      -1.41749700
C        2.40236600       3.00097300      -2.20056900
C        3.32423000       2.72801500       0.18704200
H        2.23431300       1.30265700      -0.93279100
C       -2.88500400      -4.10342300       0.41500700
H       -1.85628200      -2.65314000       1.56554000
C       -3.79903200      -2.79298300       2.42973300
H        3.37788500       2.67180800      -2.57493900
H        1.63117500       2.65853000      -2.89920200
H        2.39146900       4.09418700      -2.18127100
H        4.24475300       2.28336900      -0.20629800
H        3.50150200       3.79945500       0.29881500
H        3.12192000       2.29855000       1.17101500
H       -2.42733200      -3.99138500      -0.57086700
H       -2.28850900      -4.82205300       0.98704900
H       -3.88547800      -4.52710600       0.30060000
H       -3.52273600      -3.64911900       3.05459700
H       -3.68535800      -1.87873600       3.02212200
H       -4.85037000      -2.89615300       2.14483900
