81
Properties=species:S:1:pos:R:3 pbc="F F F"
Si      -0.17568300      -1.02631900      -0.56397700
O       -1.83278700      -1.67274800       0.22066800
C       -2.74504700      -2.33764700      -0.33556200
C       -4.01169400      -2.60135500       0.30117200
H       -2.56804600      -2.76547200      -1.32640900
C       -4.30347500      -2.16495500       1.61203700
C       -4.97427900      -3.32464500      -0.43477200
C       -5.54459800      -2.44530200       2.16809500
H       -3.55370300      -1.61910100       2.17269300
C       -6.21722000      -3.59744900       0.12800300
H       -4.73640400      -3.65769200      -1.44148100
C       -6.50139500      -3.15709600       1.42688000
H       -5.77527500      -2.11582500       3.17671900
H       -6.96243100      -4.15015600      -0.43571900
H       -7.47109200      -3.37183600       1.86750400
C       -3.66892500      -0.20777300      -2.43113900
C       -2.40876400       0.00442000      -2.12588700
H       -3.94387200      -0.87466200      -3.24744500
H       -4.47326900       0.29106700      -1.89342600
C       -1.16226700       0.13385000      -1.77724700
H       -0.57599600       0.92884700      -2.24114600
Cl       0.85635200      -2.30630000       0.95245400
Cl      -0.09012600      -2.71059600      -2.08799200
O        1.40430300      -0.27684700      -1.25074200
O       -0.16205500       0.23730800       0.86095700
C        2.23633300       1.16312800       0.34876500
C        1.06019500       2.01160400       0.06476700
C       -1.30413800       2.28889100       0.55044400
C        3.55831700      -0.73016000      -0.40157700
C        4.40001500      -0.53722600       0.75244400
C        3.14605100       1.49846800       1.30506100
C        4.21470200       0.61686700       1.58841800
C        1.15429500       3.24353800      -0.50690200
C       -0.02349200       3.99173600      -0.74144200
C       -1.27342200       3.50278900      -0.22521500
H        3.00011000       2.39932300       1.89029800
C        5.06281500       0.84487900       2.69829600
H        2.12074600       3.61481400      -0.82865800
C        0.02491200       5.19383000      -1.48703800
C       -2.44644200       4.22844500      -0.57116400
C       -2.46767700       1.91322500       1.50111700
N        2.43063600       0.02289300      -0.42435500
N       -0.17620600       1.54024700       0.49398700
C        3.95166600      -1.62507700      -1.60199300
C        5.38639100      -1.47892700       1.15483500
C        6.03326300      -0.07608600       3.03285700
C        6.16886200      -1.25757600       2.27048700
H        5.50301500      -2.40824400       0.61956000
H        4.91031100       1.74024700       3.29378000
H        6.67355700       0.09039900       3.89395400
H        6.89345100      -2.00990300       2.56702000
C       -1.13443800       5.88180400      -1.77733600
C       -2.37669700       5.37642500      -1.33449300
H       -3.41945500       3.86809900      -0.27720600
H        0.98824800       5.54516500      -1.84454900
H       -1.09751300       6.79633500      -2.36157800
H       -3.29446500       5.89165700      -1.60112600
C        5.46496400      -1.38454500      -1.90764400
C        3.66592100      -3.11699000      -1.31275200
C        3.24301400      -1.25254400      -2.93321600
C       -3.68390800       1.35276000       0.73161900
C       -2.09776300       0.87965400       2.59841200
C       -2.84691000       3.19620300       2.30755600
H        5.71813300      -1.98577500      -2.78616300
H        5.63463500      -0.32976900      -2.15253400
H        6.14823800      -1.66200400      -1.10798900
H        4.02117300      -3.70071700      -2.16973600
H        4.16826100      -3.48432700      -0.41462600
H        2.59078100      -3.27299800      -1.19778300
H       -3.43137800       0.38491300       0.29822300
H       -4.50484200       1.21369800       1.44360400
H       -4.03162300       2.00295000      -0.07330500
H       -3.63105800       2.91550000       3.01717500
H       -1.97936300       3.54995700       2.87560900
H       -3.22080600       4.02253900       1.70653000
H        3.79618500      -1.74858200      -3.73778700
H        2.21206000      -1.59302500      -2.96870300
H        3.27446700      -0.17286300      -3.11334200
H       -1.98429600      -0.12591700       2.20393300
H       -1.17786900       1.16057000       3.12055200
H       -2.91857600       0.88182100       3.32359300
