81
Properties=species:S:1:pos:R:3 pbc="F F F"
Si      -0.16310400      -0.87841800      -1.05875700
O       -1.98417000      -1.69674200      -0.77420600
C       -2.34138300      -2.41308900       0.18778200
C       -3.68733800      -2.90189600       0.34300000
H       -1.60679900      -2.68156200       0.95907800
C       -4.70252600      -2.60765200      -0.59470700
C       -3.97609200      -3.68076800       1.48395500
C       -5.98682800      -3.08965300      -0.38389000
H       -4.46390500      -2.00842400      -1.46735500
C       -5.26705700      -4.15920800       1.68735600
H       -3.18485700      -3.89939100       2.19677700
C       -6.26882000      -3.86291100       0.75491800
H       -6.77484700      -2.87030000      -1.09789400
H       -5.49643400      -4.75879000       2.56280600
H       -7.27691100      -4.23626000       0.91292100
C        1.59453100      -2.04325800       2.47803900
C        1.12687300      -2.14077600       1.25782600
H        2.63719700      -1.79556700       2.66675400
H        0.95213000      -2.21013900       3.34173700
C        0.66213900      -2.24231000       0.04088800
H        0.71529100      -3.22497400      -0.43006100
Cl      -1.29770500       0.63157600      -2.27843700
Cl       0.00461600      -2.19372300      -2.88914200
O       -0.44943000       0.11607500       0.52598200
O        1.36816600       0.10859400      -1.45613800
C        0.77553500       2.05531600       0.26516400
C        1.97080500       1.21447700       0.47885900
C        3.43009200      -0.48122600      -0.46472000
C       -1.62636300       2.15966900       0.59350300
C       -1.59250700       3.50405900       0.08262100
C        0.85764000       3.38642200      -0.01117200
C       -0.32984700       4.13227500      -0.19649600
C        2.77481600       1.38959900       1.56376400
C        3.84621100       0.49609200       1.78790800
C        4.14750700      -0.48676300       0.78556000
H        1.83004500       3.84457400      -0.15155400
C       -0.28116900       5.46176400      -0.67869200
H        2.53135200       2.15671800       2.28973700
C        4.56472000       0.52390800       3.00751600
C        5.10499200      -1.48308400       1.11950500
C        3.96601100      -1.15782500      -1.74956400
N       -0.46775800       1.46710900       0.47161400
N        2.29026000       0.25247200      -0.47370100
C       -2.83971200       1.54894200       1.33591700
C       -2.76864300       4.22934600      -0.25184700
C       -1.44713100       6.14543400      -0.95388400
C       -2.69382800       5.50781500      -0.76683800
H       -3.73864200       3.76513700      -0.16394900
H        0.68921700       5.91540100      -0.85729900
H       -1.40951600       7.15937000      -1.34072400
H       -3.60928000       6.02310100      -1.04131500
C        5.51399500      -0.43944000       3.27718400
C        5.75712900      -1.46444000       2.33614100
H        5.29736800      -2.30286400       0.44543000
H        4.32485100       1.29346800       3.73532100
H        6.05168400      -0.43030900       4.22048600
H        6.46004700      -2.25735900       2.57236000
C       -2.45845400       0.39502800       2.30301000
C       -3.43680900       2.63558700       2.28468700
C       -3.90896700       1.03042200       0.34804700
C        3.67639800      -2.67688300      -1.73887400
C        3.39362900      -0.57392200      -3.07013000
C        5.49790100      -0.86682800      -1.85141300
H       -3.31925900       0.21871200       2.95550700
H       -2.22963000      -0.53355900       1.79073600
H       -1.60155700       0.66584900       2.92852800
H       -4.24367400       2.16397000       2.85406400
H       -2.67284300       2.98089700       2.99016900
H       -3.85420400       3.50368700       1.78031000
H        2.60080800      -2.84548700      -1.82657700
H        4.17312000      -3.12347800      -2.60744000
H        4.03414300      -3.17991800      -0.83763100
H        5.85243300      -1.31895200      -2.78261600
H        5.66822700       0.21419300      -1.90773800
H        6.10299600      -1.26465700      -1.03982300
H       -4.73212900       0.60066700       0.92974900
H       -4.31371600       1.82232400      -0.28688600
H       -3.48651000       0.25967400      -0.29861500
H        2.37684000      -0.90061900      -3.26817200
H        3.42997000       0.52017200      -3.07038100
H        4.03425300      -0.93673900      -3.88104000
