81
Properties=species:S:1:pos:R:3 pbc="F F F"
Si      -0.45243000       1.05511700       1.50468200
O        1.33492000       1.18494600       0.71362000
C        1.67509600       1.48247600      -0.46016600
C        3.05734900       1.63821900      -0.83600600
H        0.91637900       1.54881000      -1.24548800
C        4.09453900       1.64100900       0.12256100
C        3.35952800       1.72670000      -2.21053300
C        5.41383000       1.72651400      -0.29814400
H        3.84518300       1.57521400       1.17584700
C        4.68627000       1.79846500      -2.62406600
H        2.55098900       1.72487500      -2.93669600
C        5.70992200       1.79940300      -1.66920400
H        6.21830800       1.73344100       0.43100900
H        4.92635700       1.85359400      -3.68123900
H        6.74566700       1.85867000      -1.99192600
C        0.69136100       4.42071400      -0.32783900
C       -0.00932800       3.74748900       0.55915400
H        0.29601700       4.61577200      -1.32461700
H        1.66868300       4.83490300      -0.08313200
C       -0.65127000       2.97819200       1.38766200
H       -1.35074800       3.40329200       2.10790900
Cl       0.53952400       1.22929500       3.51894800
Cl      -2.45066900       0.63567200       2.39024100
O       -1.09937900       0.90746500      -0.28900000
O       -0.15059900      -0.81756600       1.51532000
C       -1.57216500      -1.31535500      -0.66959800
C       -0.10947900      -1.50160500      -0.69052100
C        1.87444500      -1.73940000       0.68183800
C       -3.32479400       0.35282700      -0.82239500
C       -4.28411400      -0.71845400      -0.74241200
C       -2.44889900      -2.34775800      -0.80261900
C       -3.83810100      -2.08509300      -0.76260900
C        0.55919700      -1.83531600      -1.82968400
C        1.96868300      -1.93539100      -1.80259300
C        2.63900400      -1.87363500      -0.53240300
H       -2.07531700      -3.36264300      -0.87422500
C       -4.77258700      -3.14694900      -0.71632900
H        0.00953200      -1.94483900      -2.75773900
C        2.70773100      -2.05628200      -3.00312700
C        4.06146100      -1.86559500      -0.55064800
C        2.42785800      -2.09568400       2.08001100
N       -2.03722800      -0.01003500      -0.60078600
N        0.57931600      -1.36514000       0.50792400
C       -3.68513600       1.79385100      -1.25802700
C       -5.67753200      -0.49218300      -0.57177800
C       -6.11996100      -2.88296500      -0.58566600
C       -6.56475200      -1.54604400      -0.48400200
H       -6.05713200       0.51105600      -0.45782700
H       -4.40299800      -4.16754700      -0.75584900
H       -6.83574100      -3.69796000      -0.53467400
H       -7.61887500      -1.33934700      -0.32612900
C        4.08590900      -2.05315400      -2.97380400
C        4.75940400      -1.93317700      -1.73836100
H        4.61875900      -1.75515200       0.36500800
H        2.16761800      -2.12119000      -3.94303900
H        4.65413000      -2.12292500      -3.89634900
H        5.84361100      -1.88654900      -1.71779300
C       -4.66323500       1.69837000      -2.47265600
C       -4.30240300       2.60273000      -0.09472300
C       -2.48736600       2.61141700      -1.81347200
C        3.36313100      -0.99449700       2.63226800
C        1.33284500      -2.36770100       3.14501000
C        3.17807000      -3.46048000       1.95014100
H       -4.87840700       2.72046500      -2.79895000
H       -4.17865600       1.16799800      -3.30062100
H       -5.61259000       1.20951200      -2.26563100
H       -4.60159900       3.58270400      -0.48334300
H       -5.17817400       2.12375600       0.34910600
H       -3.55791400       2.74544700       0.69209800
H        2.81351800      -0.05683600       2.73513900
H        3.70241800      -1.31041200       3.62497100
H        4.24579500      -0.82324800       2.01350300
H        3.55019900      -3.72092600       2.94575400
H        2.47964000      -4.24137000       1.62894600
H        4.02412900      -3.45581000       1.26585300
H       -2.90686000       3.47873400      -2.33407700
H       -1.82904800       2.97065900      -1.02789700
H       -1.90536400       2.02872600      -2.53530400
H        0.87389900      -1.45485300       3.51577300
H        0.55484000      -3.03243600       2.75590300
H        1.82603300      -2.87213700       3.98292500
