81
Properties=species:S:1:pos:R:3 pbc="F F F"
Si       0.38369200      -1.42369600       0.96979400
O       -1.24348800      -1.26668600      -0.09511600
C       -2.02716000      -2.18268200      -0.45721400
C       -3.29545400      -1.91781000      -1.08998700
H       -1.72381800      -3.22471000      -0.33090900
C       -3.71069800      -0.61125200      -1.42321400
C       -4.12124600      -3.02113700      -1.39361600
C       -4.93925500      -0.41467800      -2.03810100
H       -3.05966800       0.22543500      -1.20439700
C       -5.35381200      -2.81667200      -2.00638700
H       -3.78904500      -4.02356900      -1.13694300
C       -5.76190400      -1.51545100      -2.32676400
H       -5.26165600       0.58913200      -2.29701800
H       -5.99565000      -3.66145100      -2.23639100
H       -6.72310600      -1.35640100      -2.80773300
C       -2.95390500      -3.20991600       2.33765100
C       -1.78357900      -2.62630500       2.47502900
H       -3.03608500      -4.28775600       2.20153000
H       -3.87897500      -2.63604200       2.38181700
C       -0.62913000      -2.02953100       2.51107200
H       -0.13860600      -1.86259800       3.47037400
Cl       2.31835200      -1.30185600       2.08457500
Cl       0.76381800      -3.53143900       0.22979100
O        1.09136800      -0.77438900      -0.64101600
O        0.07147300       0.39725800       1.52496700
C        1.71906400       1.41803600      -0.28468900
C        0.28150500       1.74582300      -0.32607100
C       -1.77600100       1.76139400       0.95626700
C        3.38595700      -0.24134100      -0.87518900
C        4.39446300       0.67656200      -0.41049900
C        2.66111900       2.37143400      -0.04295800
C        4.02634500       2.00708300      -0.01238800
C       -0.23700800       2.54891800      -1.29498100
C       -1.61249400       2.86865900      -1.27487400
C       -2.39773500       2.46596700      -0.14046900
H        2.35012900       3.38502400       0.18323300
C        5.01072300       2.92754300       0.41892800
H        0.40225400       2.89721200      -2.09819300
C       -2.20465700       3.55738200      -2.36077000
C       -3.79613000       2.72674800      -0.20547300
C       -2.44663800       1.61178600       2.34248600
N        2.10709500       0.12254000      -0.60054100
N       -0.52228400       1.29692000       0.71733200
C        3.70088000      -1.47973000      -1.74780200
C        5.75933200       0.30779300      -0.25884700
C        6.32934400       2.53776500       0.52395200
C        6.69369700       1.21006200       0.20812100
H        6.07735100      -0.70265200      -0.46082000
H        4.70040900       3.93221200       0.69035800
H        7.08234100       3.23933200       0.87025800
H        7.72192000       0.88709200       0.33963100
C       -3.55990900       3.80837200      -2.37128400
C       -4.35657700       3.36729900      -1.29187800
H       -4.45610600       2.38686100       0.57546800
H       -1.57231300       3.86048400      -3.19010100
H       -4.01725300       4.32427000      -3.21004200
H       -5.43062400       3.52494200      -1.31448800
C        4.75059500      -1.04981700      -2.82367400
C        4.22403300      -2.66288000      -0.90061100
C        2.49783700      -1.98156800      -2.59103300
C       -3.54872600       0.52652800       2.29910200
C       -1.49263600       1.24580900       3.51089600
C       -3.00874400       3.00933200       2.75995800
H        4.93898300      -1.92187500      -3.45738000
H        4.33846600      -0.25143500      -3.45130300
H        5.70617200      -0.71358000      -2.42706100
H        4.43547500      -3.49556400      -1.58100400
H        5.13929600      -2.42979000      -0.35207600
H        3.46126900      -2.97681500      -0.18570200
H       -3.09339000      -0.44228100       2.08455600
H       -4.01823900       0.47628100       3.28771000
H       -4.32822300       0.71119700       1.55758200
H       -3.50013700       2.88643000       3.73004700
H       -2.17924000       3.71505300       2.88254700
H       -3.72771300       3.45216300       2.07462400
H        2.90361500      -2.65201100      -3.35625200
H        1.77293500      -2.53562200      -2.00193100
H        1.99561000      -1.15047900      -3.09722900
H       -1.18703800       0.20390000       3.49032200
H       -0.60398400       1.88312900       3.52199200
H       -2.05142900       1.41939600       4.43721600
