81
Properties=species:S:1:pos:R:3 pbc="F F F"
Si      -0.33769500      -0.82310800      -0.70067500
O       -2.12046700      -1.23558200      -0.10840900
C       -2.57691800      -2.28604900       0.41470100
C       -3.99322100      -2.52875700       0.52905100
H       -1.88671800      -3.01769400       0.84318100
C       -4.95030500      -1.65189500      -0.02778900
C       -4.40896900      -3.68103000       1.22954900
C       -6.30243600      -1.92908600       0.12312900
H       -4.61668900      -0.77623400      -0.57347400
C       -5.76621000      -3.94936400       1.37904800
H       -3.66147500      -4.35094300       1.64652200
C       -6.71003200      -3.07426400       0.82652700
H       -7.04569700      -1.26266500      -0.30416300
H       -6.09232400      -4.83329700       1.91841400
H       -7.76990400      -3.28503200       0.94024700
C       -1.92087800      -4.31011200      -1.84092500
C       -1.14432100      -3.26157700      -2.00555200
H       -1.54310100      -5.23062800      -1.39672500
H       -2.95940800      -4.29952300      -2.16973200
C       -0.42366900      -2.18197800      -2.07413100
H        0.13935500      -1.96959200      -2.98179000
Cl      -1.29301700       0.68045200      -2.13020300
Cl       0.58394000      -2.21747400       0.85882100
O       -0.33642000       0.40236900       0.71467500
O        1.31358400      -0.17586200      -1.30255400
C        1.19637700       2.03972800       0.17695800
C        2.23291600       1.02223100       0.44463700
C        3.36026400      -0.94571000      -0.41825900
C       -1.13903800       2.61540300       0.51604700
C       -0.87145300       3.88018300      -0.12061800
C        1.50981900       3.29586300      -0.24431000
C        0.47504600       4.22892900      -0.48321500
C        3.12138300       1.15498200       1.46952000
C        4.05713900       0.12497900       1.71799300
C        4.15083700      -0.96309500       0.78464100
H        2.54390400       3.54856500      -0.44895400
C        0.75793400       5.47570300      -1.08988600
H        3.05120900       2.01296700       2.12837700
C        4.85531700       0.13827800       2.88695600
C        4.97569200      -2.06309900       1.14704400
C        3.69433900      -1.78501300      -1.67483900
N       -0.12582300       1.71692200       0.46093400
N        2.33496700      -0.05876300      -0.42218200
C       -2.43135200       2.32395700       1.31994800
C       -1.89751000       4.79683800      -0.48158000
C       -0.26457400       6.34776200      -1.39865400
C       -1.60028100       5.98757600      -1.11351400
H       -2.93414200       4.55508700      -0.30773300
H        1.78975200       5.71423600      -1.33030700
H       -0.04920300       7.29762500      -1.87875800
H       -2.41034400       6.65140900      -1.39983000
C        5.67631700      -0.93012100       3.18066800
C        5.70633900      -2.04866100       2.31792700
H        4.99725200      -2.95206700       0.53571800
H        4.78002900       0.98774200       3.55950100
H        6.27570300      -0.92777300       4.08614400
H        6.30372700      -2.91631800       2.58095300
C       -2.72134800       3.56854600       2.21914400
C       -3.62083300       2.00673400       0.38498500
C       -2.31562700       1.15799300       2.33816800
C        3.16728400      -3.23215800      -1.54086500
C        3.14271100      -1.18653100      -2.99808900
C        5.24207100      -1.76114400      -1.88521800
H       -3.62283000       3.34874900       2.79940400
H       -1.89149600       3.72319800       2.91818100
H       -2.88885500       4.49902600       1.68166200
H       -4.50777600       1.84561700       1.00821800
H       -3.84123700       2.80312700      -0.32864400
H       -3.40881100       1.09577200      -0.17808900
H        2.07520400      -3.23352600      -1.49157500
H        3.48517700      -3.79281600      -2.42732400
H        3.54944300      -3.74164400      -0.65293300
H        5.45458900      -2.31947300      -2.80186200
H        5.58408800      -0.72926700      -2.02448900
H        5.82613300      -2.20785200      -1.08424900
H       -3.17485700       1.23929200       3.01242100
H       -2.34819300       0.18182900       1.86505400
H       -1.40273400       1.23595000       2.93599500
H        2.07830100      -1.35335600      -3.12740800
H        3.34386100      -0.11268300      -3.06493000
H        3.66565200      -1.68567800      -3.82024500
