81
Properties=species:S:1:pos:R:3 pbc="F F F"
Si      -0.26505700      -0.80132200      -0.93345300
O       -2.11447400      -1.33454500      -0.54003600
C       -2.50231700      -2.52138400      -0.41621500
C       -3.83690500      -2.86547300      -0.00327700
H       -1.80139500      -3.33629200      -0.62862400
C       -4.81189100      -1.88122400       0.27634000
C       -4.14891100      -4.23514200       0.13586000
C       -6.07766400      -2.27155000       0.68984600
H       -4.55829300      -0.83332000       0.16474100
C       -5.42051000      -4.61696900       0.55314300
H       -3.38844500      -4.98081200      -0.08055000
C       -6.38133200      -3.63635400       0.82891100
H       -6.83468500      -1.52376400       0.90612800
H       -5.66664600      -5.66845700       0.66345300
H       -7.37471900      -3.93373800       1.15357500
C       -0.64015100      -2.85724400       2.52086800
C       -0.04873300      -2.50440900       1.40394900
H       -1.38582900      -3.65151600       2.53946000
H       -0.39746500      -2.37467700       3.46686800
C        0.47142800      -2.13087000       0.26779000
H        1.37538700      -2.63428900      -0.07403700
Cl      -1.20701300       0.70488000      -2.29261000
Cl      -0.14842900      -2.29463600      -2.65464000
O       -0.45839500       0.31963000       0.57411000
O        1.36368800       0.00640100      -1.37701000
C        1.03477600       2.04151100       0.31815300
C        2.07862600       1.02597000       0.56910400
C        3.37262700      -0.78385100      -0.40424700
C       -1.34059300       2.51226200       0.50744200
C       -1.06506600       3.84479600       0.02965800
C        1.33879800       3.34179100       0.05498800
C        0.29446800       4.26775400      -0.17107700
C        2.86159100       1.06698500       1.68287200
C        3.82805800       0.05816200       1.89611300
C        4.07368700      -0.89674600       0.85026500
H        2.37685100       3.64159300      -0.03418100
C        0.58377600       5.58195900      -0.60941000
H        2.69066300       1.83795100       2.42565900
C        4.52511300      -0.02289800       3.12530400
C        4.97466200      -1.95871900       1.14178100
C        3.85861900      -1.46210300      -1.70973600
N       -0.29321300       1.65392900       0.46033000
N        2.30199600       0.04936800      -0.39645500
C       -2.69014400       2.09991800       1.14818200
C       -2.08716600       4.77034800      -0.31924000
C       -0.43837400       6.45757800      -0.90883600
C       -1.77957600       6.03291900      -0.78531600
H       -3.12601600       4.48627800      -0.26512800
H        1.62347600       5.87227900      -0.72878600
H       -0.21649900       7.46113800      -1.25919400
H       -2.58558000       6.70419300      -1.06570600
C        5.40855900      -1.05560300       3.35763600
C        5.61013300      -2.03954000       2.36442800
H        5.14679300      -2.74551700       0.42447300
H        4.32941900       0.72810900       3.88488100
H        5.93250500      -1.12637500       4.30606500
H        6.27083700      -2.87799700       2.56260300
C       -3.10667200       3.22585600       2.14803300
C       -3.77851600       1.86542800       0.07514800
C       -2.63094800       0.82765600       2.03751500
C        3.52072800      -2.97252700      -1.73228700
C        3.29928500      -0.84232200      -3.01815900
C        5.39973600      -1.21408200      -1.81451000
H       -4.05025500       2.91966200       2.61039700
H       -2.35228800       3.31980400       2.93728900
H       -3.25632000       4.20730800       1.70400600
H       -4.71488600       1.62290400       0.59098300
H       -3.95694700       2.73268900      -0.56339500
H       -3.49262200       1.02833600      -0.56547600
H        2.44542400      -3.10830700      -1.87894100
H        4.03924700      -3.42239200      -2.58604400
H        3.82023000      -3.50655600      -0.82817000
H        5.74005200      -1.67503100      -2.74682200
H        5.59743900      -0.13765300      -1.87096500
H        5.99350600      -1.62550300      -1.00112900
H       -3.56285600       0.80136900       2.61278100
H       -2.56068000      -0.08854400       1.46009400
H       -1.79534300       0.86797900       2.74271800
H        2.26526800      -1.11896200      -3.20544100
H        3.38819600       0.24831200      -3.01381900
H        3.91254900      -1.23209900      -3.83792600
