61
Properties=species:S:1:pos:R:3 pbc="F F F"
Si       0.44558400      -1.84328600       0.82490000
O       -1.32034100      -1.42361400       0.12582600
C       -1.67092800      -1.20091000      -1.06252900
C       -3.04658200      -0.95204400      -1.41060500
H       -0.91551500      -1.11472000      -1.84771700
C       -4.07794500      -1.01476400      -0.44695600
C       -3.33605800      -0.57817700      -2.73980400
C       -5.37778400      -0.69795200      -0.81646300
H       -3.83835200      -1.30544400       0.57065500
C       -4.64177200      -0.25956100      -3.10017500
H       -2.53209600      -0.53596800      -3.47011300
C       -5.65909000      -0.31866600      -2.13924900
H       -6.17802000      -0.74104500      -0.08392700
H       -4.87123400       0.03302000      -4.12012000
H       -6.67863700      -0.06954800      -2.42038000
C       -1.09205700      -4.00160800      -2.20862300
C       -0.22441700      -3.75241200      -1.25081400
H       -0.91646200      -3.67334000      -3.23261600
H       -1.99934600      -4.57247800      -2.01344000
C        0.57419300      -3.42765200      -0.27687600
H        1.40242400      -4.08669400      -0.01338100
Cl      -0.57462200      -2.89721200       2.50428200
Cl       2.46269500      -2.01813800       1.75364100
O        1.11408900      -0.81114800      -0.66808100
O        0.27919100      -0.18357200       1.75349500
C        1.71741700       1.34886300      -0.00014800
C        0.29423200       1.62183700       0.25707300
C       -1.65790500       1.11247600       1.56982700
C        3.34075900      -0.19696500      -0.87505300
C        4.37010200       0.77905500      -0.71794500
C        2.67802600       2.31660300       0.15659700
C        4.02816300       2.06386200      -0.18097400
C       -0.35262400       2.67161100      -0.34788200
C       -1.70020800       2.97202100      -0.04497900
C       -2.36680900       2.18702900       0.95180800
H        2.38573500       3.28088700       0.55654200
C        5.04157100       3.03736400      -0.01011600
H        0.18670400       3.26304000      -1.07906200
C       -2.40146300       4.01934700      -0.68898200
C       -3.71441700       2.47526800       1.28077500
C       -2.23331000       0.31614400       2.57949700
N        2.07281900       0.10811000      -0.49754000
N       -0.38331400       0.84226700       1.18027000
C        3.57348300      -1.46601300      -1.44748600
C        5.71426500       0.50538800      -1.07086800
C        6.34500600       2.74449800      -0.35933400
C        6.68049900       1.47489000      -0.88995800
H        5.97166700      -0.46831700      -1.47337700
H        4.77659200       4.00820800       0.39785900
H        7.12234200       3.49078600      -0.22601000
H        7.71141100       1.26168800      -1.15544700
C       -3.71700700       4.27395700      -0.35664700
C       -4.37347900       3.49917300       0.63088900
H       -4.21812100       1.87943900       2.03381100
H       -1.88975900       4.61148800      -1.44168900
H       -4.25596500       5.07504800      -0.85340100
H       -5.40866000       3.71327800       0.87805000
C        3.83902000      -2.52121200      -1.97662400
H        4.05520700      -3.46650400      -2.42691300
C       -2.78683300      -0.30485500       3.45758000
H       -3.25166300      -0.88139900       4.22859500
