61
Properties=species:S:1:pos:R:3 pbc="F F F"
Si       0.33522400      -1.78084100       0.71702700
O       -1.30227500      -1.16360600      -0.10090300
C       -2.44349900      -1.69190200      -0.11880700
C       -3.51929500      -1.13164400      -0.89743500
H       -2.65274100      -2.54995100       0.52630100
C       -3.33140600       0.00943000      -1.70879600
C       -4.79484500      -1.72313800      -0.78818500
C       -4.41267100       0.54954000      -2.39146300
H       -2.34260400       0.44878000      -1.78894500
C       -5.87319900      -1.17622400      -1.47729200
H       -4.92368000      -2.60216500      -0.16230000
C       -5.68168700      -0.04128300      -2.27516800
H       -4.27950000       1.42840800      -3.01505700
H       -6.85783700      -1.62619600      -1.39647500
H       -6.52396600       0.38669300      -2.81177800
C       -1.70222200      -4.15630900      -1.79017100
C       -0.62445400      -3.78385400      -1.13313600
H       -2.41372900      -4.85775900      -1.35562500
H       -1.89938000      -3.80174100      -2.80121200
C        0.37934500      -3.33142200      -0.44161400
H        1.34785400      -3.82922400      -0.49153700
Cl      -0.76316900      -2.78640200       2.39421300
Cl       2.32633900      -2.13637000       1.66031000
O        1.08772800      -0.76699200      -0.74075900
O        0.26927900      -0.14094600       1.68171100
C        1.92048000       1.28574500       0.01789100
C        0.53114400       1.70609500       0.25995700
C       -1.53550900       1.32360000       1.42904100
C        3.36990900      -0.38376700      -0.92991700
C        4.49768500       0.46857600      -0.73483700
C        2.98017200       2.13502800       0.21928400
C        4.29575800       1.75427600      -0.13315900
C        0.02529100       2.84686500      -0.31453800
C       -1.30411100       3.26038900      -0.07378000
C       -2.10638700       2.48399800       0.82465000
H        2.79304100       3.10780500       0.65981800
C        5.40748700       2.60448900       0.07917400
H        0.65957100       3.41439300      -0.98570400
C       -1.86545900       4.39848200      -0.70162800
C       -3.44694100       2.86948300       1.07318200
C       -2.24935400       0.53322900       2.35208600
N        2.14097700       0.03621900      -0.53517500
N       -0.26666900       0.95696000       1.10744300
C        3.46917800      -1.64576700      -1.55488100
C        5.80443800       0.07262400      -1.11178300
C        6.67160500       2.19360100      -0.29445900
C        6.86859700       0.92416700      -0.89120000
H        5.95620700      -0.90088300      -1.56510400
H        5.24682400       3.57575200       0.53708300
H        7.52412100       2.84582100      -0.13041200
H        7.87009800       0.61688400      -1.17640200
C       -3.17677600       4.74797500      -0.44865700
C       -3.96815200       3.97997100       0.44082400
H       -4.05490100       2.27921600       1.74973700
H       -1.25175900       4.98110800      -1.38193700
H       -3.60905900       5.61756100      -0.93443400
H       -4.99854700       4.26804200       0.62489700
C        3.62620900      -2.70051500      -2.12667100
H        3.74621700      -3.64229600      -2.61831900
C       -2.92270000      -0.09104900       3.13949900
H       -3.49304600      -0.66537700       3.83780900
