61
Properties=species:S:1:pos:R:3 pbc="F F F"
Si      -0.47506400      -1.90670400      -0.30836500
O        1.19352000      -1.17397300       0.62331500
C        2.37521600      -1.56634200       0.52590200
C        3.47895500      -0.83095800       1.09544600
H        2.59557800      -2.48025900      -0.04083900
C        3.27471300       0.34534100       1.85125600
C        4.78746700      -1.28093800       0.82293800
C        4.36950600       1.06111000       2.31384700
H        2.26265300       0.67434200       2.06149900
C        5.88050400      -0.55457300       1.28743600
H        4.93153700      -2.18668600       0.23974400
C        5.67021300       0.61445100       2.02854800
H        4.22255100       1.96846600       2.89141000
H        6.89039600      -0.89194400       1.07585100
H        6.52323300       1.18256800       2.38929900
C        1.65856800      -5.28901300      -1.11682200
C        1.09813200      -4.12460800      -1.33931400
H        2.69194000      -5.36672900      -0.77986000
H        1.10488000      -6.21700000      -1.25508700
C        0.54197900      -2.96296300      -1.55005800
H        0.61690600      -2.52648400      -2.54653700
Cl      -2.41283800      -2.30041200      -1.32161400
Cl      -0.63234700      -3.38579700       1.31595100
O       -1.21186700      -0.64952300       0.89426300
O       -0.22443000      -0.38752500      -1.52266100
C       -1.79242400       1.36968200      -0.15613900
C       -0.36139500       1.63716600      -0.36753700
C        1.68117800       0.94605500      -1.42980200
C       -3.45667900      -0.04904200       0.85054200
C       -4.48082500       0.87546800       0.48325700
C       -2.74944900       2.28612400      -0.51476700
C       -4.11592600       2.06656400      -0.22556000
C        0.23290300       2.79028100       0.08550300
C        1.59666400       3.05837000      -0.17193200
C        2.34002100       2.12055800      -0.96147700
H       -2.43931300       3.18490500      -1.03582300
C       -5.12253800       2.98754300      -0.60204200
H       -0.35843500       3.48525300       0.67099400
C        2.24716700       4.21007300       0.33295700
C        3.70888800       2.36453700      -1.23134400
C        2.33363200      -0.02669600      -2.21666800
N       -2.17037200       0.20769800       0.49746300
N        0.38176000       0.72647700      -1.09707700
C       -3.72418800      -1.20558600       1.61177900
C       -5.84167100       0.64118600       0.79959900
C       -6.44248000       2.73359600      -0.28560400
C       -6.80120400       1.55692400       0.41652200
H       -6.11659800      -0.26123700       1.33449700
H       -4.83832400       3.88767300      -1.13873200
H       -7.21460200       3.43968300      -0.57602700
H       -7.84435100       1.37304900       0.65457400
C        3.58539300       4.41853600       0.06595200
C        4.31603600       3.49255700      -0.71872800
H        4.27052400       1.65381400      -1.82745200
H        1.67869800       4.91600500       0.93071800
H        4.08550700       5.29875600       0.45841700
H        5.36816400       3.67254700      -0.91661500
C       -4.03525700      -2.14988800       2.30089900
H       -4.28078900      -3.00505700       2.89360100
C        2.95483300      -0.82659900      -2.87894400
H        3.48379500      -1.54680900      -3.46615100
