61
Properties=species:S:1:pos:R:3 pbc="F F F"
Si       0.30878300      -1.78016200       0.64083300
O       -1.28272000      -1.16324600      -0.30574800
C       -2.21455600      -1.85664700      -0.78911800
C       -3.44709900      -1.27647100      -1.26500500
H       -2.07365600      -2.93448300      -0.90476100
C       -3.66959300       0.11682700      -1.26542800
C       -4.44199300      -2.15090200      -1.75048500
C       -4.87598700       0.62199900      -1.73096800
H       -2.89058200       0.78073800      -0.91209800
C       -5.65029600      -1.63846000      -2.21323200
H       -4.25818500      -3.22203400      -1.74828800
C       -5.86708000      -0.25467900      -2.20094700
H       -5.05128800       1.69363300      -1.73405500
H       -6.42119900      -2.30782200      -2.58227200
H       -6.80998400       0.14537300      -2.56350700
C       -3.30387700      -3.16648800       1.74972100
C       -2.02774400      -2.90586100       1.93285600
H       -3.63519700      -4.11698000       1.33307200
H       -4.07213200      -2.44677800       2.03111900
C       -0.76933600      -2.59786500       2.02850100
H       -0.23102200      -2.81332900       2.95184200
Cl       2.23912000      -2.14254900       1.71271500
Cl       0.44822000      -3.61530600      -0.63749900
O        1.10960100      -0.81715700      -0.76805900
O        0.22155800      -0.09582000       1.60262300
C        1.95386600       1.24644700      -0.03703800
C        0.57200700       1.71251000       0.15986200
C       -1.49816700       1.45095200       1.35477700
C        3.41002800      -0.47717900      -0.87573700
C        4.54448800       0.36290300      -0.66183200
C        3.02172800       2.08264800       0.17771000
C        4.34303300       1.66905500      -0.10737200
C        0.11963900       2.86977000      -0.42625700
C       -1.17633500       3.36678400      -0.15919600
C       -2.00266600       2.65100100       0.76718800
H        2.83535900       3.07190100       0.57985600
C        5.46041000       2.50575200       0.12625600
H        0.77492000       3.39651600      -1.11086300
C       -1.67680400       4.53865100      -0.77644900
C       -3.30420900       3.13122600       1.05487600
C       -2.24534200       0.69894000       2.28455400
N        2.17518200      -0.02689600      -0.53393500
N       -0.25590200       1.01276500       1.02240500
C        3.52105400      -1.75276200      -1.46559900
C        5.85757300      -0.06635100      -0.97568400
C        6.73056300       2.06179700      -0.18391400
C        6.92763600       0.77259700      -0.73659200
H        6.00919900      -1.05504400      -1.39453600
H        5.29965000       3.49239800       0.54987200
H        7.58789300       2.70329400      -0.00347500
H        7.93375400       0.43967500      -0.97223700
C       -2.95101200       4.98219400      -0.48389900
C       -3.76515500       4.27511600       0.43473600
H       -3.93040000       2.58786000       1.75376400
H       -1.04512500       5.07355700      -1.47902500
H       -3.33576800       5.87899400      -0.95999600
H       -4.76511200       4.63756200       0.65248000
C        3.70079100      -2.81989100      -2.00597200
H        3.82870700      -3.77656200      -2.46545300
C       -2.94765700       0.12759200       3.08676000
H       -3.54750400      -0.40118300       3.79595200
