59
Properties=species:S:1:pos:R:3 pbc="F F F"
Si       0.42757000      -1.87310300       0.83372000
O       -1.31960500      -1.41155900       0.15252300
C       -1.68872300      -1.26243400      -1.04488100
C       -3.05971700      -0.99436100      -1.38486300
H       -0.94605400      -1.25899800      -1.84636000
C       -4.08362700      -1.00017100      -0.41003100
C       -3.35422600      -0.66430000      -2.72550600
C       -5.37862600      -0.66523800      -0.77889900
H       -3.84633300      -1.27278600       0.61299300
C       -4.65465400      -0.32463500      -3.08404300
H       -2.55773600      -0.67092500      -3.46498900
C       -5.66291300      -0.32360200      -2.11165000
H       -6.17312300      -0.66810200      -0.03909500
H       -4.88750700      -0.06408800      -4.11176500
H       -6.67893000      -0.06000300      -2.39213600
C       -1.25299300      -4.15371900      -2.02783500
C       -0.31522400      -3.82571400      -1.16622900
H       -1.20862500      -3.82461500      -3.06534100
H       -2.08733300      -4.79093400      -1.73709000
C        0.56126400      -3.43411000      -0.28726300
H        1.46310500      -4.02656200      -0.12704300
Cl      -0.57078200      -2.84748700       2.53029000
Cl       2.45850400      -2.01466200       1.71915600
O        1.11190400      -0.81010400      -0.69585200
O        0.28781000      -0.15044500       1.73770000
C        1.72653900       1.35291700      -0.04721400
C        0.30853700       1.63798000       0.22023500
C       -1.62916200       1.15448600       1.53502700
C        3.33707000      -0.21036600      -0.87041400
C        4.38475800       0.73615700      -0.73141500
C        2.70369600       2.31065900       0.09784400
C        4.05146300       2.03919100      -0.22401000
C       -0.34344200       2.69195300      -0.38037000
C       -1.68198800       3.00579700      -0.06552800
C       -2.34795700       2.22440200       0.94026500
H        2.42249700       3.28401600       0.48401000
H        0.19103200       3.27708000      -1.12049800
N        2.06552100       0.10345600      -0.52807700
N       -0.36006200       0.86837300       1.15553200
C        5.07608900       3.00212500      -0.06222600
C        6.37774700       2.68164000      -0.39102600
H        7.16503200       3.41829100      -0.26478200
C        6.70200500       1.39550400      -0.89176300
H        7.73300800       1.16417100      -1.14023100
H        4.82129300       3.98472100       0.32262300
C       -2.38067900       4.06062200      -0.69974400
C       -3.68864200       4.32555000      -0.34919600
H       -4.22705300       5.13223600      -0.83682000
C       -4.34141800       3.55528900       0.64661400
H       -1.87275800       4.64925900      -1.45727800
H       -5.37082900       3.78105400       0.90622500
C       -2.21349200       0.35542500       2.55923700
C        3.55503100      -1.50826200      -1.41923300
N       -2.79113500      -0.20170500       3.39758300
N        3.81146900      -2.52740600      -1.91228000
C       -3.68902300       2.52350600       1.28862000
H       -4.19449600       1.93546600       2.04690900
C        5.72800600       0.43353200      -1.06477500
H        5.98191600      -0.55041100      -1.44462400
