59
Properties=species:S:1:pos:R:3 pbc="F F F"
Si       0.44647600      -1.09164700       0.63776300
O        2.08621500      -1.36570300      -0.25034100
C        3.18134700      -1.71871400       0.26815200
C        4.40912000      -1.74714500      -0.47614100
H        3.19473200      -2.05989000       1.30759300
C        4.47223500      -1.36211600      -1.83446200
C        5.57168100      -2.18546300       0.19504800
C        5.68721800      -1.41750700      -2.50286400
H        3.57109700      -1.02573000      -2.33539200
C        6.78477300      -2.23570100      -0.48304800
H        5.50697000      -2.47821500       1.23963300
C        6.84076000      -1.85210500      -1.82931500
H        5.74810500      -1.12422800      -3.54646700
H        7.68262900      -2.57093400       0.02675600
H        7.78816400      -1.89172200      -2.35988800
C        3.73226600       0.86662300       1.92192900
C        2.44596400       0.60577200       1.88951600
H        4.16267000       1.64933000       1.29929200
H        4.40320000       0.31455600       2.57858200
C        1.18813500       0.28002000       1.79597400
H        0.47024200       0.77972000       2.44859200
Cl      -0.42465400      -2.52839000      -0.82700100
Cl       0.71377300      -2.68444400       2.16816300
O       -1.27792700      -0.61622300       1.34579300
O        0.09743000       0.20831300      -0.79982600
C       -2.52742900       0.63424400      -0.19472600
C       -1.53673500       1.71947300      -0.08768000
C        0.72074700       2.41776400      -0.46622000
C       -3.25804100      -1.51837600       0.55327000
C       -4.43583400      -1.43592600      -0.23412900
C       -3.65774800       0.76477000      -0.96851500
C       -4.63640500      -0.25140200      -1.02281700
C       -1.89080500       3.00057400       0.26670500
C       -0.94317300       4.04857100       0.28229200
C        0.40865700       3.75537400      -0.10622000
H       -3.77993200       1.66729000      -1.55680600
H       -2.91998400       3.19530700       0.54790000
N       -2.34921100      -0.51661100       0.55341800
N       -0.22574600       1.45110700      -0.44234200
C       -5.79988000      -0.13973400      -1.82091400
C       -6.72499200      -1.16409700      -1.83315000
H       -7.61759100      -1.07969700      -2.44526400
C       -6.52329300      -2.33121100      -1.05391600
H       -7.26260400      -3.12544900      -1.08088100
H       -5.94812000       0.75651800      -2.41523400
C       -1.28270500       5.36906000       0.66154800
C       -0.31782900       6.35640400       0.65367500
H       -0.57699500       7.36920200       0.94626400
C        1.01387700       6.06311400       0.26687900
H       -2.30487700       5.58657500       0.95532500
H        1.75707000       6.85425100       0.26902600
C        2.01912500       2.04368300      -0.91874600
C       -3.01037600      -2.62933000       1.41190900
N        3.09458500       1.84717700      -1.30965800
N       -2.93195600      -3.55751300       2.10424900
C        1.37915400       4.78687100      -0.11046300
H        2.40035200       4.56680000      -0.40313200
C       -5.40143500      -2.47259900      -0.26338800
H       -5.25053100      -3.36803800       0.32991400
