65
Properties=species:S:1:pos:R:3 pbc="F F F"
Si       0.22981900      -2.00394100       0.62757000
O       -1.39036200      -1.26369700      -0.09375800
C       -2.55834100      -1.73967200      -0.11262800
C       -3.62228900      -1.08108000      -0.82342300
H       -2.79333100      -2.61708900       0.49522300
C       -3.38916600       0.05746400      -1.62812200
C       -4.93538500      -1.56521600      -0.64186400
C       -4.46068500       0.70599700      -2.22413500
H       -2.37389100       0.40833000      -1.77639900
C       -6.00426200      -0.90833000      -1.24405300
H       -5.10109300      -2.44212900      -0.02185300
C       -5.76669500       0.22614800      -2.02994200
H       -4.29158200       1.58443100      -2.83912100
H       -7.01727800      -1.27207300      -1.10351200
H       -6.60179200       0.74009600      -2.49779700
C       -1.99828800      -4.14512800      -1.89996900
C       -0.87538700      -3.85273900      -1.27983000
H       -2.22657200      -3.73045700      -2.88097100
H       -2.71595000      -4.84104400      -1.46695500
C        0.17916200      -3.47958600      -0.61663300
H        1.12389400      -4.00893000      -0.74216400
Cl      -0.83799500      -2.98757300       2.29813300
Cl       2.24175600      -2.44584400       1.45914000
O        0.98763500      -0.92841300      -0.83565800
O        0.28816000      -0.35366500       1.66740800
C        1.85777900       1.06919800       0.01350900
C        0.44947000       1.47682200       0.21685800
C       -1.50685800       1.11471300       1.54743000
C        3.26625100      -0.58539100      -0.98756400
C        4.41911600       0.19691600      -0.72678800
C        2.94003500       1.86949800       0.34179800
C        4.25437400       1.43791400      -0.02386000
C       -0.13793700       2.54291800      -0.44742400
C       -1.47859600       2.91292200      -0.11517300
C       -2.16523200       2.20879200       0.93035300
N        2.04908100      -0.15020800      -0.60677500
N       -0.26941600       0.75319600       1.15031700
C        5.41021000       2.20412800       0.26320000
C        6.65926600       1.76255900      -0.12849300
H        7.53616900       2.36101400       0.09853300
C        6.81064300       0.53841400      -0.82127600
H        7.80038800       0.20567500      -1.11768800
H        5.31261700       3.14477700       0.79121300
C       -2.16262400       3.96169500      -0.77711600
C       -3.45622700       4.28928800      -0.42146900
H       -3.96922200       5.09157100      -0.94276000
C       -4.12154700       3.59382500       0.61536800
H       -1.66777200       4.51245800      -1.56783900
H       -5.13883900       3.86426400       0.87958600
C       -2.13259600       0.34737400       2.57083800
C        3.32314700      -1.83490800      -1.67132900
N       -2.73329300      -0.18990000       3.40638600
N        3.44540700      -2.82479600      -2.26547900
C       -3.48813600       2.57230500       1.28903700
H       -3.99827800       2.03181900       2.07901100
C        5.71007300      -0.23662200      -1.11965500
H        5.82304500      -1.17863600      -1.64584800
C        0.60427800       3.29485000      -1.51637700
H       -0.00110300       3.32798700      -2.42856400
H        0.77495000       4.33030400      -1.19905000
H        1.56353200       2.83762800      -1.75749300
C        2.74580300       3.17513100       1.06085900
H        3.40206800       3.21556700       1.93639900
H        3.01915500       4.01096500       0.40591400
H        1.71745300       3.31368000       1.39467800
