65
Properties=species:S:1:pos:R:3 pbc="F F F"
Si       0.18188200      -2.00036400       0.56222000
O       -1.39400000      -1.25820400      -0.29240800
C       -2.39750700      -1.90525100      -0.69857400
C       -3.59024900      -1.26336900      -1.18732600
H       -2.34782800      -2.99651700      -0.73523800
C       -3.68778900       0.13797700      -1.33033600
C       -4.67839300      -2.08770000      -1.54673300
C       -4.86328000       0.70145400      -1.80659200
H       -2.83727800       0.76072900      -1.08269600
C       -5.85564800      -1.51553000      -2.01793400
H       -4.58936000      -3.16561800      -1.44190400
C       -5.94836100      -0.12355600      -2.14425700
H       -4.94252100       1.77804000      -1.92172000
H       -6.69779900      -2.14483800      -2.28828600
H       -6.86709600       0.32275300      -2.51457200
C       -3.46958700      -2.95464500       1.99173800
C       -2.15664900      -2.90741500       2.01094300
H       -4.00083600      -3.78351800       1.52602500
H       -4.05851300      -2.17278100       2.46951400
C       -0.86020000      -2.80884800       1.96994500
H       -0.26844200      -3.22943600       2.78367900
Cl       2.14417700      -2.44202300       1.52385500
Cl       0.21135800      -3.74988600      -0.79479300
O        0.97215400      -0.96945100      -0.83617100
O        0.20046900      -0.29212800       1.62733900
C        1.89328000       1.01434700       0.00089200
C        0.50073300       1.49355800       0.15358600
C       -1.48633000       1.28246200       1.46827400
C        3.26847700      -0.70547600      -0.94072000
C        4.44092300       0.04081300      -0.66278500
C        2.99718700       1.77771300       0.34928700
C        4.30354200       1.29427000       0.02378600
C       -0.00159700       2.59352400      -0.52399100
C       -1.30566400       3.07807700      -0.18931000
C       -2.04450000       2.43769900       0.86075400
N        2.06070500      -0.22444400      -0.58740800
N       -0.27498500       0.82687100       1.08672500
C        5.47867000       2.02242600       0.33047100
C        6.71981800       1.53407800      -0.02946200
H        7.61158100       2.10435000       0.21175900
C        6.84436000       0.29877200      -0.70782200
H        7.82826100      -0.07063000      -0.97889200
H        5.40298600       2.97165600       0.84636700
C       -1.89389400       4.18852700      -0.84353500
C       -3.14436800       4.64098100      -0.46969000
H       -3.58280600       5.49211100      -0.98142900
C       -3.85957700       4.00968800       0.57473500
H       -1.35719900       4.68927100      -1.64022600
H       -4.84052500       4.37924300       0.85637100
C       -2.17451500       0.56444100       2.48670500
C        3.31608400      -1.95341400      -1.62772100
N       -2.81683500       0.07810000       3.32267200
N        3.46612000      -2.92973300      -2.23708000
C       -3.32204400       2.92499900       1.23417200
H       -3.87383800       2.43343700       2.02815900
C        5.72484500      -0.44079600      -1.02342400
H        5.81732700      -1.39174500      -1.53696900
C        2.83793000       3.09785700       1.05062200
H        3.47391800       3.11825600       1.94175300
H        3.16345300       3.91580800       0.39688700
H        1.80913300       3.28243300       1.35881000
C        0.80072400       3.27891600      -1.59371200
H        0.20506600       3.34413400      -2.51038400
H        1.04329200       4.30314000      -1.28707400
H        1.72606000       2.75054100      -1.82141400
