65
Properties=species:S:1:pos:R:3 pbc="F F F"
Si       0.33260000      -2.05643900       0.76246500
O       -1.44121800      -1.46332700       0.13311500
C       -1.83275600      -1.43593900      -1.06064100
C       -3.13802800      -0.96539600      -1.43241400
H       -1.14990500      -1.75222700      -1.85629200
C       -4.10155000      -0.59669300      -0.46611400
C       -3.42371800      -0.83481300      -2.80896300
C       -5.32330400      -0.08723900      -0.87920800
H       -3.87799600      -0.72947300       0.58652100
C       -4.65101500      -0.31944800      -3.21387200
H       -2.67584500      -1.12987700      -3.54035800
C       -5.59536900       0.05621800      -2.25017400
H       -6.06958700       0.20004100      -0.14520400
H       -4.87655200      -0.21062600      -4.27002100
H       -6.55398900       0.45819400      -2.56629200
C       -1.71954500      -4.80621900      -1.31643500
C       -0.63351500      -4.19946800      -0.89981900
H       -2.22012400      -4.50151300      -2.23513600
H       -2.14479600      -5.64382800      -0.76493400
C        0.40105300      -3.54124700      -0.45657500
H        1.40377000      -3.83382000      -0.76933100
Cl      -0.70283400      -3.03069800       2.42817300
Cl       2.37502400      -2.31439900       1.57487400
O        0.98651400      -0.95664700      -0.76549300
O        0.30347600      -0.36489400       1.73890800
C        1.69038100       1.13714900      -0.01252200
C        0.25744900       1.42121600       0.22544800
C       -1.57994100       0.99243200       1.69733700
C        3.22374100      -0.42797600      -0.97522300
C        4.30621700       0.46503100      -0.77485900
C        2.70291800       2.04358000       0.25848200
C        4.04298000       1.71625100      -0.12221500
C       -0.44195200       2.41569500      -0.44113300
C       -1.77542000       2.72226800      -0.02576900
C       -2.33546700       2.03595900       1.10357100
N        1.97887200      -0.08401300      -0.58857900
N       -0.35575300       0.68422800       1.22264700
C        5.12968200       2.59527200       0.10567600
C        6.40575200       2.25143200      -0.29665700
H        7.22888900       2.93561100      -0.11509600
C        6.65385200       1.01752700      -0.94265600
H        7.66345300       0.76422500      -1.25037900
H        4.95742400       3.54508300       0.59705600
C       -2.56080600       3.71047100      -0.66727300
C       -3.82868400       4.00617300      -0.20598200
H       -4.41993100       4.76463400      -0.70964300
C       -4.36494300       3.33683300       0.91913600
H       -2.16085600       4.24244000      -1.52170000
H       -5.36167600       3.58528400       1.26953600
C       -2.08481500       0.23665200       2.79380200
C        3.37728300      -1.69567000      -1.60807500
N       -2.59267700      -0.27949600       3.70099000
N        3.56981700      -2.69672900      -2.16381200
C       -3.63287100       2.36747600       1.56992400
H       -4.04553100       1.84398900       2.42560000
C        5.62295200       0.13357500      -1.18137100
H        5.81049100      -0.81607900      -1.67129400
C        0.18373000       3.17321200      -1.57870700
H       -0.47351700       3.13070000      -2.45396000
H        0.29991000       4.22936900      -1.30890700
H        1.15786800       2.77283800      -1.85875900
C        2.41649600       3.34996400       0.94499800
H        3.05174600       3.44011400       1.83282100
H        2.66064000       4.18819900       0.28231500
H        1.37577000       3.43886800       1.25589200
