65
Properties=species:S:1:pos:R:3 pbc="F F F"
Si       0.90749000      -1.15154500       0.92210600
O        2.76397900      -1.61504500       0.57929200
C        3.39598100      -1.49748100      -0.50604500
C        4.82378600      -1.62585000      -0.58810600
H        2.84505000      -1.31919200      -1.43646600
C        5.61925100      -1.87170200       0.55489500
C        5.42410500      -1.49532800      -1.86014500
C        6.99512200      -1.98336800       0.41617400
H        5.14362300      -1.96998100       1.52528800
C        6.80434300      -1.60789500      -1.98814200
H        4.80009000      -1.30401200      -2.72919000
C        7.58647000      -1.85126200      -0.85183500
H        7.61668900      -2.17273700       1.28590800
H        7.27288600      -1.50766300      -2.96209400
H        8.66482400      -1.93925600      -0.95129100
C        3.28161800       1.67244400      -0.54044100
C        2.30097300       1.20254400       0.18573000
H        3.12138300       1.97338600      -1.57424700
H        4.27820800       1.79594400      -0.11971400
C        1.33543400       0.67610300       0.89228500
H        0.68786700       1.32191200       1.48253600
Cl       0.30386300      -2.27057500      -0.76220400
Cl       1.09649100      -2.13023900       2.75890500
O       -0.92685700      -0.70341200       1.39635900
O       -0.85143500       0.95216600      -2.14825700
C       -2.43266100       0.22195700      -0.16035800
C       -1.66081100       1.47938900      -0.04478500
C       -0.16344900       2.93795000      -1.20288200
C       -2.67975000      -2.01953800       0.64934800
C       -3.82983100      -2.21753200      -0.15392300
C       -3.55984300       0.10014100      -0.96035900
C       -4.26985800      -1.13725100      -0.99051600
C       -1.71709700       2.31638900       1.04985900
C       -0.94380700       3.52148800       1.05200500
C       -0.15788200       3.83878200      -0.10147700
N       -2.00594500      -0.84696800       0.60879800
N       -0.88344500       1.77715900      -1.17654500
C       -5.40782900      -1.34255200      -1.81036800
C       -6.07284900      -2.55191000      -1.79515100
H       -6.94046500      -2.69666100      -2.43157000
C       -5.63733100      -3.60817100      -0.95858300
H       -6.17464200      -4.55131900      -0.95855900
H       -5.75246800      -0.54518600      -2.45739600
C       -0.91916900       4.40792100       2.15720600
C       -0.15324800       5.55719400       2.12124700
H       -0.14114400       6.22619800       2.97624700
C        0.61577300       5.86626400       0.97661400
H       -1.50329100       4.17836600       3.04075500
H        1.21383700       6.77249300       0.95760700
C        0.60736600       3.15929800      -2.37511200
C       -2.20083700      -3.03140400       1.52915600
N        1.27280900       3.39336900      -3.29991500
N       -1.90353400      -3.91283200       2.22411500
C        0.61681100       5.02492300      -0.11832800
H        1.21197700       5.26356000      -0.99389500
C       -4.53501800      -3.44926400      -0.14775500
H       -4.19709700      -4.25888500       0.49023100
C       -2.56204000       1.95654100       2.24121500
H       -1.91597200       1.70033200       3.08954200
H       -3.17732800       2.81146800       2.53909300
H       -3.22171500       1.11086600       2.04244500
C       -4.02545000       1.26049300      -1.79348600
H       -3.84817100       1.04486400      -2.85370900
H       -5.10075600       1.41442200      -1.65846200
H       -3.50860200       2.18592200      -1.53843400
