65
Properties=species:S:1:pos:R:3 pbc="F F F"
Si      -0.34713100      -2.09528600      -0.26297000
O        1.31259000      -1.29107400       0.57928300
C        2.50267800      -1.66190700       0.46306400
C        3.59783400      -0.89575100       0.99905100
H        2.73001100      -2.57586100      -0.09994600
C        3.38210200       0.25317900       1.79484800
C        4.90937600      -1.28571200       0.65350100
C        4.46789600       1.00000500       2.22559400
H        2.36869400       0.53247000       2.06283100
C        5.99247400      -0.52355000       1.08207500
H        5.06115500      -2.16989300       0.04019400
C        5.77051800       0.61559500       1.86470200
H        4.31375300       1.88359800       2.83685800
H        7.00357000      -0.81118700       0.81164100
H        6.61607500       1.20948100       2.20047100
C        1.84928700      -5.37406800      -1.17685500
C        1.24489800      -4.22943200      -1.38064200
H        1.31784100      -6.31861600      -1.28602000
H        2.89941500      -5.41739200      -0.88983400
C        0.64211600      -3.08703500      -1.56966200
H        0.65165800      -2.65069700      -2.56865100
Cl      -2.31884100      -2.51377300      -1.18569900
Cl      -0.40790500      -3.55088100       1.35576000
O       -1.07691300      -0.81619700       0.96300100
O       -0.19363800      -0.51497600      -1.52386200
C       -1.76071500       1.14462400      -0.12832700
C       -0.32289600       1.45617200      -0.28628700
C        1.66773500       0.85638300      -1.46913400
C       -3.33346800      -0.31724200       0.93339300
C       -4.41326600       0.51077100       0.53609700
C       -2.76885700       1.97437200      -0.59416500
C       -4.12674800       1.66488000      -0.26799300
C        0.28905600       2.56375700       0.28174800
C        1.65410600       2.84496800      -0.04232800
C        2.34893100       1.99233900      -0.96420900
N       -2.07167100      -0.00225600       0.57969300
N        0.39398900       0.60051000      -1.10153900
C       -5.21016800       2.47401900      -0.68861900
C       -6.50496300       2.15433100      -0.32802300
H       -7.32504200       2.78478700      -0.65770200
C       -6.77681300       1.01512700       0.46559200
H       -7.80094700       0.77862500       0.73612100
H       -5.02190900       3.35306300      -1.29314600
C        2.35293300       3.94690400       0.50822100
C        3.66871900       4.18553700       0.16306300
H        4.19290500       5.03154200       0.59659400
C        4.34271000       3.34062200      -0.74963200
H        1.85011600       4.60775600       1.20356700
H        5.37791300       3.54188400      -1.00614900
C        2.29233700      -0.08096900      -2.33940400
C       -3.52817300      -1.47220500       1.74614500
N        2.87873900      -0.79894400      -3.03901200
N       -3.79308100      -2.35686700       2.44925400
C        3.69610000       2.26128100      -1.31199000
H        4.21300300       1.60745200      -2.00625900
C       -5.74975400       0.20232600       0.89522200
H       -5.95454800      -0.67538200       1.49887400
C       -0.45386500       3.45614100       1.23608200
H        0.11756600       3.55246400       2.16559000
H       -0.55804300       4.46185000       0.81290600
H       -1.44414800       3.07216600       1.47993100
C       -2.45588700       3.18459100      -1.42950700
H       -3.04909400       3.15430600      -2.34957300
H       -2.73266300       4.09832100      -0.89131400
H       -1.40229600       3.24295100      -1.70235000
