77
Properties=species:S:1:pos:R:3 pbc="F F F"
Si       0.38740200      -1.30921400       0.84923200
O       -1.08670200      -1.12438400      -0.45832700
C       -1.74385600      -2.02169400      -1.03851000
C       -2.92217300      -1.72532200      -1.82166700
H       -1.40397200      -3.05908400      -0.98207100
C       -3.31087200      -0.39881200      -2.10508000
C       -3.68565400      -2.80446900      -2.31106800
C       -4.45822400      -0.15902600      -2.84940900
H       -2.70109600       0.42115100      -1.74536900
C       -4.83971500      -2.55766700      -3.05001400
H       -3.37431700      -3.82249300      -2.09268600
C       -5.22582500      -1.23792500      -3.31628600
H       -4.75943100       0.86059100      -3.07000900
H       -5.43736800      -3.38496400      -3.42021400
H       -6.12480200      -1.04716700      -3.89590700
C       -2.86320400      -3.56911200       1.45265700
C       -1.85385000      -2.82690700       1.85262700
H       -2.75864400      -4.64651800       1.32757800
H       -3.83928100      -3.12808700       1.25892000
C       -0.83814600      -2.07048600       2.14038600
H       -0.62524500      -1.81124000       3.17726900
Cl       2.10138000      -1.18134100       2.27800300
Cl       1.02969200      -3.25630600      -0.05447500
O        1.26472600      -0.45062400      -0.56809800
O       -0.08919200       0.43423700       1.49407300
C        1.59965100       1.81360400      -0.08670000
C        0.14334400       2.01333400      -0.19254500
C       -2.01560100       1.55669100       0.78818000
C        3.46275100       0.31036300      -0.40256900
C        4.36548900       1.38606900      -0.15344400
C        2.44055300       2.86232200       0.17174900
C        3.84351800       2.68279200       0.17234500
C       -0.39931300       2.91117000      -1.07218300
C       -1.78896700       3.17672500      -1.06573100
C       -2.60630500       2.51989800      -0.08470100
H        2.01188700       3.83709700       0.37511400
C        4.73159000       3.74990200       0.44501800
H        0.25361000       3.42071600      -1.77194600
C       -2.37737500       4.08462700      -1.97796800
C       -3.98564900       2.85290800      -0.01532400
C       -2.78878000       0.80669000       1.79780100
N        2.13577400       0.55502300      -0.32770000
N       -0.68519900       1.33183400       0.68778000
C        3.92088400      -1.03295600      -0.81443000
C        5.77319500       1.21901800      -0.24304400
C        6.09597900       3.54699800       0.38151200
C        6.61514200       2.27922400       0.02681500
H        6.18179100       0.25703000      -0.52586500
H        4.32268400       4.72424300       0.69582600
H        6.77703400       4.36642400       0.59131800
H        7.68981100       2.14010400      -0.04051400
C       -3.72973600       4.35405400      -1.91150800
C       -4.53075400       3.74484000      -0.91681000
H       -4.60781500       2.40471100       0.74885900
H       -1.74720000       4.56622000      -2.71978600
H       -4.18049000       5.04952600      -2.61314200
H       -5.58712100       3.98814400      -0.85598900
C        4.74516800      -1.79249000       0.02690000
C        3.58869800      -1.51256700      -2.09036100
C        4.90349500      -3.50210400      -1.67944700
C        4.08783900      -2.73991300      -2.52245800
C        5.22664100      -3.02897500      -0.40431200
H        4.98465200      -1.42433700       1.01843300
H        5.85176400      -3.62179600       0.25716200
H        5.28333400      -4.46338900      -2.01448500
H        3.83382500      -3.10461200      -3.51366800
H        2.94617400      -0.92435400      -2.73765900
C       -2.43709900       0.87202400       3.15553400
C       -3.90308100       0.05041300       1.40393000
C       -4.30068200      -0.57210700       3.70673800
C       -4.65170400      -0.63952000       2.35622600
C       -3.19612900       0.18955600       4.10373600
H       -1.57191000       1.44998400       3.46107500
H       -2.92158400       0.24694300       5.15305900
H       -4.88371700      -1.11159300       4.44782800
H       -5.50524700      -1.23279700       2.04137400
H       -4.17131400      -0.01028300       0.35504200
