77
Properties=species:S:1:pos:R:3 pbc="F F F"
Si       0.01142400      -0.95949600      -0.75287100
O       -1.72100400      -1.76136400      -0.52690500
C       -2.48980800      -1.70393200       0.46673500
C       -3.64347200      -2.56218900       0.58349400
H       -2.30597700      -0.97141000       1.25465100
C       -4.02193200      -3.44156400      -0.45362500
C       -4.39829300      -2.50208000       1.77260200
C       -5.14678100      -4.24179800      -0.29695000
H       -3.43171900      -3.47622000      -1.36368200
C       -5.51747800      -3.31372900       1.92617400
H       -4.09371400      -1.82246700       2.56226000
C       -5.89289600      -4.17912000       0.89066900
H       -5.44929400      -4.91680300      -1.09192200
H       -6.09900900      -3.27485100       2.84228300
H       -6.77038500      -4.80930000       1.00757900
C       -0.66748000      -2.88307400       2.73457500
C        0.08039900      -2.42852900       1.75275900
H       -0.79861200      -2.31923100       3.65761800
H       -1.16494300      -3.84945100       2.66112200
C        0.73884400      -1.97478600       0.72698200
H        1.78968600      -2.24129200       0.62503400
Cl      -0.94322200       0.21409800      -2.42844600
Cl       0.54711500      -2.60954100      -2.18001300
O       -0.44533900       0.38659800       0.53991400
O        1.57818600      -0.01769800      -1.15730300
C        0.79729900       2.29599600       0.06154300
C        1.99795100       1.56549300       0.50967900
C        3.55383700      -0.23178500       0.07951000
C       -1.60826700       2.33337200      -0.02577300
C       -1.57251500       3.67970700      -0.48237300
C        0.86960300       3.59308200      -0.37169800
C       -0.30373600       4.31748000      -0.68863400
C        2.78636400       2.05584900       1.51566800
C        4.00435700       1.42385100       1.85762800
C        4.41369100       0.27638500       1.09924700
H        1.84413600       4.05768200      -0.46958600
C       -0.25929400       5.64801700      -1.16737000
H        2.46730400       2.94847400       2.04194600
C        4.83575200       1.91980500       2.88938800
C        5.68337900      -0.30099100       1.36942000
C        3.90999900      -1.40142700      -0.74984800
N       -0.44498300       1.68730300       0.18090200
N        2.38442600       0.40819100      -0.15620400
C       -2.87912300       1.65569800       0.32322500
C       -2.76241500       4.41159700      -0.73755200
C       -1.43317300       6.32723500      -1.42848000
C       -2.68667300       5.70685800      -1.20831000
H       -3.72524900       3.94418300      -0.56835800
H        0.70600900       6.12038500      -1.32266700
H       -1.39823000       7.34729400      -1.79935800
H       -3.59966600       6.25870100      -1.41027600
C        6.04841600       1.31358500       3.15120400
C        6.47591500       0.20779400       2.37864800
H        6.03107300      -1.13707100       0.77608900
H        4.50721900       2.78427700       3.45863500
H        6.68719800       1.69514800       3.94219700
H        7.44418500      -0.24180100       2.57628900
C       -3.78908500       1.26401300      -0.66601500
C       -3.20960100       1.51542900       1.67991400
C       -5.36052600       0.59818700       1.05270200
C       -4.45218100       0.99255300       2.04001600
C       -5.02415400       0.72647400      -0.29714300
H       -3.52128800       1.36877200      -1.71093700
H       -5.72223700       0.40984000      -1.06642500
H       -6.32306000       0.18261300       1.33557700
H       -4.70827500       0.89160600       3.09075300
H       -2.50263400       1.82647500       2.44357000
C        4.02305400      -1.27554900      -2.14311800
C        4.18762400      -2.63299200      -0.13514900
C        4.68170200      -3.60050100      -2.29550200
C        4.55919900      -3.73204800      -0.90944800
C        4.42033700      -2.37003900      -2.90792800
H        3.80206700      -0.32643300      -2.61884900
H        4.51416600      -2.26556500      -3.98484400
H        4.97691600      -4.45502600      -2.89790200
H        4.75451200      -4.68634800      -0.42925900
H        4.09982700      -2.72941100       0.94273900
