77
Properties=species:S:1:pos:R:3 pbc="F F F"
Si      -0.05712700      -0.82724600      -0.66403300
O       -1.80888800      -1.52208000      -0.22323500
C       -2.25330100      -2.68387900      -0.39953100
C       -3.47221800      -3.14596300       0.21822500
H       -1.71865300      -3.36708100      -1.06649500
C       -4.19333900      -2.34511900       1.12813800
C       -3.92976100      -4.43966700      -0.10821800
C       -5.35745100      -2.83913400       1.70172600
H       -3.82983500      -1.35227800       1.36604500
C       -5.10001900      -4.92579900       0.46778500
H       -3.36174100      -5.04685800      -0.80845900
C       -5.81098400      -4.12655900       1.37227900
H       -5.91803000      -2.23021600       2.40483800
H       -5.45927600      -5.91988200       0.21966100
H       -6.72263100      -4.50740000       1.82474000
C       -0.21352100      -4.10581300       1.59766200
C        0.26522700      -2.92306600       1.28586400
H        0.22437800      -5.01528600       1.18718600
H       -1.04592500      -4.21506700       2.29150200
C        0.66404800      -1.75048200       0.88947000
H        1.42042200      -1.23415600       1.47952900
Cl      -1.09143000       0.30508100      -2.31855300
Cl       0.44403600      -2.48502800      -2.10351100
O       -0.44954200       0.55670300       0.59714900
O        1.50023800       0.08420900      -1.15025300
C        0.83525600       2.42982200       0.05730600
C        2.02972800       1.67345000       0.47613600
C        3.47512000      -0.21809400       0.06474000
C       -1.57215500       2.52974200       0.04367300
C       -1.51062500       3.87896700      -0.41260300
C        0.93042700       3.71975500      -0.39040500
C       -0.23148800       4.47637200      -0.66931100
C        2.86620300       2.14563500       1.45221300
C        4.05216200       1.45237800       1.78958200
C        4.37304300       0.25570800       1.06532500
H        1.91361500       4.15549200      -0.52626300
C       -0.15929800       5.80417300      -1.15240900
H        2.60348400       3.06201600       1.96861600
C        4.92872500       1.92015200       2.79671500
C        5.59372400      -0.41191000       1.35192500
C        3.74041300      -1.43310400      -0.73209900
N       -0.41872000       1.85322500       0.21976800
N        2.34905800       0.48989900      -0.17739800
C       -2.85069900       1.88445500       0.41730200
C       -2.68110400       4.65925100      -0.60974300
C       -1.31706700       6.52630500      -1.36408400
C       -2.57970100       5.95206100      -1.08315800
H       -3.65273500       4.23495100      -0.38934700
H        0.81583400       6.24070800      -1.34686400
H       -1.26152300       7.54467900      -1.73715200
H       -3.48070800       6.53814300      -1.23690500
C        6.09524700       1.23385200       3.07068100
C        6.43016900       0.06968400       2.33870900
H        5.86641800      -1.29632800       0.78938300
H        4.67044600       2.82385400       3.34072200
H        6.76795400       1.59380600       3.84345800
H        7.36081500      -0.44749300       2.55141000
C       -3.85417500       1.67379100      -0.53732700
C       -3.09640600       1.59681900       1.76881100
C       -5.35483400       0.92675400       1.20952700
C       -4.35058500       1.12935300       2.16219600
C       -5.10027100       1.18612600      -0.14005900
H       -3.65161100       1.88411200      -1.58162100
H       -5.87238300       1.01532900      -0.88458300
H       -6.32917900       0.55818800       1.51732600
H       -4.54169600       0.92150400       3.21114600
H       -2.31554600       1.75735900       2.50593700
C        3.93992800      -1.33722200      -2.11694900
C        3.85067600      -2.67488400      -0.09040000
C        4.36032600      -3.71919200      -2.21226500
C        4.15082500      -3.81655700      -0.83369600
C        4.25863400      -2.47837000      -2.85047300
H        3.84867900      -0.37513100      -2.61045000
H        4.41982300      -2.40032200      -3.92175500
H        4.59881100      -4.60831500      -2.78940700
H        4.22004400      -4.77927300      -0.33551700
H        3.68412100      -2.74578500       0.97939600
