77
Properties=species:S:1:pos:R:3 pbc="F F F"
Si      -0.06007400      -0.92215200      -0.40159200
O       -1.75113400      -1.44581900       0.31159300
C       -2.80311700      -1.75390900      -0.30578200
C       -3.94054700      -2.32693300       0.36851300
H       -2.88869000      -1.52775000      -1.37171500
C       -3.91838100      -2.61772700       1.74885700
C       -5.11142100      -2.54477500      -0.38513500
C       -5.06107300      -3.11563900       2.36124000
H       -3.00974300      -2.44064600       2.31472900
C       -6.25336300      -3.04034500       0.23615100
H       -5.11323600      -2.31317700      -1.44692800
C       -6.22735400      -3.32349400       1.60774800
H       -5.05548500      -3.34068000       3.42354100
H       -7.15993500      -3.20581200      -0.33787600
H       -7.11908900      -3.70933400       2.09429500
C       -1.76342600      -4.26129200      -1.80025700
C       -0.75300100      -3.43678000      -1.62475200
H       -2.40274900      -4.19414600      -2.68016900
H       -1.97701500      -5.05443500      -1.08432400
C        0.17887400      -2.56092100      -1.39083800
H        1.19802600      -2.73585500      -1.73791200
Cl      -1.05483600       0.13958700      -2.19617200
Cl       0.88603500      -1.84545100       1.45774700
O       -0.26364500       0.54941100       0.71887800
O        1.51675700      -0.18811300      -1.06255900
C        1.04638300       2.31445000      -0.05989200
C        2.23972200       1.53968200       0.33395100
C        3.57576900      -0.44585200      -0.00634500
C       -1.36314800       2.49340800       0.04903100
C       -1.28603100       3.81290600      -0.48185200
C        1.15000900       3.56974200      -0.59788800
C       -0.00477600       4.34919800      -0.84512400
C        3.17186200       2.06022800       1.19241800
C        4.35475000       1.34739200       1.49899400
C        4.57338300       0.07848100       0.86507000
H        2.13416500       3.96276800      -0.82658800
C        0.07840800       5.64716600      -1.40247800
H        2.98899500       3.03181000       1.63753200
C        5.32710200       1.86443800       2.38738800
C        5.79010400      -0.61038300       1.11221000
C        3.71940300      -1.73566900      -0.71526600
N       -0.21512700       1.80244000       0.21300700
N        2.46111300       0.28589000      -0.22187900
C       -2.63513000       1.86430300       0.46676600
C       -2.44100700       4.62202800      -0.64874300
C       -1.06672100       6.39795900      -1.58092800
C       -2.32776300       5.88537600      -1.19324600
H       -3.40897800       4.24339500      -0.34450000
H        1.05268100       6.04013800      -1.67745500
H       -1.00119000       7.39386600      -2.00897900
H       -3.21636900       6.49621200      -1.31996700
C        6.48773500       1.15683000       2.63019200
C        6.72125700      -0.07966000       1.98226800
H        5.98420000      -1.55148000       0.61252600
H        5.14571700       2.82242100       2.86559600
H        7.23316900       1.55423100       3.31260500
H        7.64777200      -0.61475300       2.16695100
C       -3.66630900       1.67512800      -0.46512100
C       -2.82616400       1.48870800       1.80536500
C       -5.06780600       0.74443200       1.27561400
C       -4.04280500       0.93758400       2.20631200
C       -4.87572800       1.10911800      -0.05958900
H       -3.50714900       1.94675100      -1.50266100
H       -5.66305300       0.94572100      -0.78957800
H       -6.00602400       0.29454800       1.58679000
H       -4.18524400       0.64925800       3.24358100
H       -2.02544600       1.62585200       2.52447700
C        3.72901200      -1.77367100      -2.11860300
C        3.86406400      -2.92228300       0.01760500
C        4.00981700      -4.17759600      -2.04676200
C        4.00070700      -4.14017200      -0.64943100
C        3.88060000      -2.99220300      -2.77926900
H        3.61106000      -0.85566700      -2.68468300
H        3.88889700      -3.01671300      -3.86507600
H        4.11441500      -5.12694800      -2.56456000
H        4.09368700      -5.05824000      -0.07664300
H        3.83619800      -2.88916400       1.10094900
