57
Properties=species:S:1:pos:R:3 pbc="F F F"
Si      -0.50913700      -2.23401600       0.06394000
O       -1.78284900      -0.73915200      -0.36286400
C       -3.02774500      -0.85279600      -0.43879700
C       -3.90071900       0.27632400      -0.62932300
H       -3.48092700      -1.84721100      -0.34985400
C       -3.39987000       1.58254000      -0.83369000
C       -5.29298500       0.04743100      -0.59130900
C       -4.28588700       2.63902000      -0.98772600
H       -2.32860400       1.74248000      -0.87919100
C       -6.17436200       1.11437700      -0.74019600
H       -5.66524300      -0.96224200      -0.43901900
C       -5.67070700       2.40596800      -0.93726300
H       -3.91076700       3.64493800      -1.15070900
H       -7.24620800       0.94611500      -0.70698800
H       -6.35883600       3.23810900      -1.05788000
C       -3.20128500      -1.62113200       2.99164600
C       -2.46345000      -2.35246500       2.18793800
H       -4.19856100      -1.29264300       2.69946000
H       -2.85371700      -1.34799800       3.98781300
C       -1.71963000      -3.01177200       1.34544400
H       -1.75919200      -4.10148800       1.32612200
Cl       1.14410200      -3.65389900       0.52049600
Cl      -1.35159100      -3.40075200      -1.65343500
O        0.48034800      -1.26661500      -1.21283600
O        0.21287900      -1.04077600       1.37876100
C        2.11266200       0.05887800      -0.19865000
C        1.02139700       0.88741500       0.35391800
C       -0.84762300       0.96648200       1.84523600
C        2.70486200      -1.77868200      -1.61397500
C        4.03824800      -1.51688700      -1.46307900
C        3.48248600       0.33856600       0.04302300
C        4.47370100      -0.46563900      -0.62182100
C        0.88490700       2.27432100       0.07992400
C       -0.14632900       3.00892800       0.76239000
C       -0.98666000       2.31348800       1.66602300
H       -1.77148600       2.83927400       2.19896500
H       -1.48217400       0.34065000       2.46040500
N        1.77912900      -0.98963000      -0.97926800
N        0.14031800       0.28743000       1.17780600
H        2.28465400      -2.57549000      -2.20994600
H        4.75937600      -2.13986500      -1.98079300
C        1.70300000       2.94579600      -0.86656000
C       -0.30841300       4.38938500       0.49452400
C        0.50964800       5.01789700      -0.42183800
H        0.38117000       6.07605900      -0.62826900
C        1.51319800       4.28963600      -1.10823200
C        3.90408200       1.36343700       0.93277000
C        5.84651000      -0.19340900      -0.40503900
C        6.22494000       0.82098400       0.44935000
H        7.27821300       1.02470000       0.61670700
C        5.24841900       1.59420800       1.12675400
H        6.58766700      -0.80210600      -0.91373300
H        5.56456600       2.37388300       1.81278500
H        3.16848900       1.95444000       1.46520000
H        2.46626100       2.39697100      -1.40509100
H        2.13629300       4.79535000      -1.83925400
H       -1.08927600       4.93530700       1.01517700
