57
Properties=species:S:1:pos:R:3 pbc="F F F"
Si       1.11166200      -0.31606100       1.27433600
O        2.86792100       0.09471800       0.61178300
C        3.24949200       0.31567200      -0.56597700
C        4.64472800       0.37859800      -0.92114700
H        2.50885800       0.50008300      -1.34967700
C        5.66679100       0.16508500       0.03057500
C        4.97242400       0.66135800      -2.26425500
C        6.99556700       0.23554900      -0.36621200
H        5.39955000      -0.05226300       1.05965000
C        6.30670200       0.73047700      -2.65268600
H        4.17580800       0.81678400      -2.98726100
C        7.31540700       0.51757300      -1.70439900
H        7.78860100       0.07260500       0.35731700
H        6.56494200       0.94636400      -3.68483100
H        8.35759600       0.57018400      -2.00717300
C        2.51431900      -2.53207300      -1.74748100
C        1.83717300      -2.35903000      -0.63425500
H        3.58125400      -2.75110100      -1.72725200
H        2.02735800      -2.49111200      -2.72115400
C        1.22703200      -2.08439800       0.48198200
H        0.80351200      -2.90308600       1.06402700
Cl       1.09221700       1.78443600       2.06466500
Cl       1.97732600      -1.08073200       3.19175600
O        0.35060500       0.27735500      -0.40492100
O       -0.65097300      -0.48089200       1.93111200
C       -1.88979100       0.79768900      -0.11141200
C       -2.12310000      -0.64247800       0.13227000
C       -1.75115900      -2.50238500       1.59125400
C       -0.31957900       2.47863200      -0.76197900
C       -1.29876000       3.43162000      -0.80844100
C       -2.93483200       1.75632200      -0.08092300
C       -2.63059700       3.11266000      -0.45244100
C       -2.99495400      -1.42305800      -0.66996200
C       -3.25696600      -2.78226500      -0.27674800
C       -2.62249800      -3.28381300       0.88518900
H       -2.80852700      -4.29927700       1.21734700
H       -1.20933900      -2.80694000       2.47585500
N       -0.63458100       1.18970100      -0.41254200
N       -1.51022700      -1.21235900       1.18928900
H        0.72340100       2.64752000      -0.98396100
H       -1.03587800       4.44326700      -1.09784200
C       -3.59431300      -0.91581700      -1.85414100
C       -4.13050100      -3.57499000      -1.05973400
C       -4.70956100      -3.04986100      -2.19650800
H       -5.37639600      -3.66064500      -2.79743300
C       -4.43228400      -1.71865100      -2.59719800
C       -4.25687700       1.42827000       0.32373500
C       -3.66160100       4.08354200      -0.43903700
C       -4.93904300       3.73168300      -0.05594800
H       -5.72659000       4.47900300      -0.04140700
C       -5.23285600       2.40083600       0.33464700
H       -3.42448900       5.10388500      -0.72480100
H       -6.23896400       2.14683300       0.65363500
H       -4.49235900       0.41771300       0.63551500
H       -3.38371200       0.09702400      -2.17610900
H       -4.88234400      -1.32837100      -3.50472300
H       -4.32672000      -4.59790000      -0.75322800
