57
Properties=species:S:1:pos:R:3 pbc="F F F"
Si      -1.06603100      -0.87281300      -0.97345900
O       -2.81608000      -0.76200800      -0.21199600
C       -3.25310400       0.03836600       0.65354500
C       -4.65111900       0.13705500       0.98126100
H       -2.54923700       0.65582500       1.21899700
C       -5.63168500      -0.63217400       0.31592800
C       -5.02487000       1.03773200       2.00151100
C       -6.96620600      -0.49242300       0.67230900
H       -5.32917600      -1.32092700      -0.46624800
C       -6.36462900       1.17057300       2.35207900
H       -4.25905300       1.62321400       2.50410700
C       -7.33250700       0.40685000       1.68734000
H       -7.72826800      -1.07784300       0.16688000
H       -6.65882400       1.86203700       3.13559500
H       -8.37920400       0.51057700       1.95976600
C       -3.11632000       2.57383500      -1.21917300
C       -2.21037100       1.70936900      -1.61992500
H       -2.86259700       3.39617600      -0.55056500
H       -4.14579000       2.51543000      -1.56980600
C       -1.34997000       0.78638200      -1.93710600
H       -0.74001300       0.90959800      -2.83333300
Cl      -0.81797300      -2.71099800       0.28971200
Cl      -1.86303300      -2.07524400      -2.68431600
O        0.67757100      -0.93315800      -1.68890200
O       -0.32071700       0.02029700       0.58612400
C        2.25084600      -0.57403900      -0.01646700
C        1.78791800       0.83070400       0.02636900
C       -0.00347900       2.32777500       0.53158900
C        2.10701800      -2.68014700      -1.14423200
C        3.14005300      -3.18956900      -0.40795100
C        3.28543200      -1.06857300       0.81794600
C        3.75013700      -2.41441100       0.60701100
C        2.65071000       1.92475500      -0.24205000
C        2.14190000       3.25959800      -0.06869600
C        0.79797700       3.41895800       0.34367300
H        0.38228000       4.40946100       0.49285200
H       -1.04308600       2.36705500       0.81860100
N        1.68744100      -1.39272400      -0.92732200
N        0.50235300       1.06349500       0.36485000
H        1.56131300      -3.20961400      -1.91175800
H        3.47063100      -4.20538500      -0.59487100
C        3.98623500       1.74643300      -0.69415400
C        2.99016000       4.36503000      -0.32105900
C        4.28696600       4.15963300      -0.74381800
H        4.93488400       5.00860800      -0.93962100
C        4.78116900       2.84511200      -0.93810800
C        3.85798800      -0.29220400       1.86117500
C        4.78907700      -2.92462300       1.42316500
C        5.33523900      -2.14196000       2.41890900
H        6.12887400      -2.53704100       3.04574400
C        4.86047200      -0.82465100       2.64209900
H        5.13611300      -3.93949300       1.25455800
H        5.28899000      -0.23011900       3.44293200
H        3.49750600       0.71235300       2.04807900
H        4.37415800       0.74795400      -0.85624000
H        5.79823500       2.70252800      -1.28975400
H        2.59882700       5.36835400      -0.18274200
