57
Properties=species:S:1:pos:R:3 pbc="F F F"
Si       0.54203900      -2.30339100      -0.04999000
O        1.81603800      -0.74504200       0.44157100
C        2.91140900      -0.41799800      -0.05827900
C        3.60862000       0.78997600       0.31537300
H        3.36120600      -1.05035100      -0.83625000
C        3.07990700       1.68822300       1.26911500
C        4.82014100       1.08419200      -0.34385100
C        3.76007300       2.86471900       1.55028000
H        2.14431100       1.44847000       1.76401700
C        5.49698400       2.26599900      -0.05443300
H        5.21333900       0.38564000      -1.07806700
C        4.96629100       3.15316400       0.88971100
H        3.36125000       3.56410700       2.27884000
H        6.43012200       2.49894800      -0.55790800
H        5.49289900       4.07657700       1.11474700
C        4.07014900      -4.05914300      -0.99370500
C        2.89372000      -3.52509000      -1.21427200
H        4.17689500      -5.12376900      -0.78952600
H        4.97752600      -3.45587800      -1.00567000
C        1.72270200      -2.97971700      -1.40266800
H        1.33145200      -2.91076900      -2.41910300
Cl      -1.10358500      -3.71542300      -0.51567500
Cl       1.36522400      -3.36557500       1.69234700
O       -0.47262800      -1.29427800       1.16993100
O       -0.19420600      -1.09809900      -1.43192200
C       -2.06597200       0.05606800       0.13860400
C       -0.95249800       0.85241000      -0.41623800
C        0.85769500       0.89521500      -1.97742100
C       -2.71021000      -1.78277800       1.52948500
C       -4.03629100      -1.49410900       1.36488000
C       -3.42721300       0.36956200      -0.11149700
C       -4.44117600      -0.42380400       0.53221700
C       -0.77300800       2.23414800      -0.14484500
C        0.25535800       2.94624900      -0.85398000
C        1.03687100       2.23743500      -1.79814900
H        1.80702500       2.74770500      -2.36632300
H        1.43090600       0.26980300      -2.64738000
N       -1.76282200      -1.00495500       0.91275200
N       -0.10609800       0.22601700      -1.25999000
H       -2.31215500      -2.59172900       2.12413900
H       -4.77556100      -2.10845000       1.86710600
C       -1.54643400       2.92047600       0.82754400
C        0.46406800       4.31903800      -0.58161800
C       -0.30699800       4.96191700       0.36509800
H       -0.14186900       6.01391200       0.57670900
C       -1.31107200       4.25649300       1.07411300
C       -3.81970900       1.41508500      -0.99066500
C       -5.80608900      -0.12324800       0.30326500
C       -6.15582800       0.90908500      -0.54176300
H       -7.20319700       1.13402600      -0.71881500
C       -5.15730200       1.67370200      -1.19636400
H       -6.56420400      -0.72474000       0.79528700
H       -5.45093800       2.46929400      -1.87407800
H       -3.06767400       2.00096100      -1.50530600
H       -2.30937800       2.38833000       1.38369000
H       -1.89850100       4.77344500       1.82657200
H        1.24383500       4.84719500      -1.12183300
