57
Properties=species:S:1:pos:R:3 pbc="F F F"
Si       1.11279700      -0.17839300       1.10992000
O        2.75447400       0.36484100       0.20600500
C        3.80702700      -0.31998900       0.20032300
C        4.99317100       0.07947200      -0.50718000
H        3.83257900      -1.26386700       0.75646500
C        5.06114100       1.28871800      -1.23659600
C        6.10856700      -0.78485700      -0.45662000
C        6.23243500       1.61849900      -1.90346900
H        4.19698800       1.94470200      -1.26269600
C        7.27783100      -0.44672700      -1.13120500
H        6.04234600      -1.70938800       0.11100600
C        7.33790300       0.75237700      -1.85185400
H        6.29754400       2.54552000      -2.46499900
H        8.13891200      -1.10684600      -1.09725800
H        8.25120400       1.01820100      -2.37704700
C        1.94332100      -2.59394800      -2.02622100
C        1.56591800      -2.31590400      -0.80114800
H        2.99604800      -2.72123200      -2.27693100
H        1.21693800      -2.71428000      -2.82910300
C        1.22444200      -1.98318200       0.41369400
H        1.03836400      -2.78051700       1.13427900
Cl       1.08713800       1.93316200       1.86447700
Cl       2.17182800      -0.84574200       2.99751300
O        0.27936900       0.34020400      -0.52521300
O       -0.59219900      -0.36334300       1.88867400
C       -1.96402700       0.79649000      -0.13950900
C       -2.13900500      -0.64056200       0.16805200
C       -1.63264900      -2.43397600       1.66936500
C       -0.47726500       2.50065600      -0.91834800
C       -1.48726700       3.42170900      -0.95082900
C       -3.03747900       1.72269000      -0.09785500
C       -2.79204600       3.07415100      -0.52694900
C       -3.01574200      -1.47971100      -0.56676100
C       -3.21006000      -2.83262400      -0.11568700
C       -2.50563500      -3.27035600       1.03141800
H       -2.63714000      -4.28010700       1.40432800
H       -1.03731200      -2.68970300       2.53452000
N       -0.73706800       1.21648300      -0.51112100
N       -1.46214100      -1.15045900       1.21636000
H        0.55061200       2.68664100      -1.19366200
H       -1.27069500       4.43038800      -1.28547200
C       -3.68339200      -1.03702000      -1.74021200
C       -4.08641400      -3.68336900      -0.83210600
C       -4.73186800      -3.22040600      -1.95994000
H       -5.40060500      -3.87577400      -2.50965400
C       -4.52130700      -1.89542200      -2.41825600
C       -4.33151600       1.36759400       0.36958000
C       -3.85283800       4.01229600      -0.50380900
C       -5.10232800       3.63409100      -0.05868000
H       -5.91264700       4.35655800      -0.03788600
C       -5.33769800       2.30874600       0.38650400
H       -3.66043700       5.02891000      -0.83303700
H       -6.32231700       2.03406100       0.75209900
H       -4.52182500       0.36091200       0.72201000
H       -3.52356700      -0.02958500      -2.10553100
H       -5.02313100      -1.55474000      -3.31857400
H       -4.23145900      -4.70089500      -0.48216600
