57
Properties=species:S:1:pos:R:3 pbc="F F F"
Si      -1.03919300      -0.90761700      -0.75771400
O       -2.65299400      -0.66129000       0.20300900
C       -3.80900800      -0.51730200      -0.27666800
C       -4.93690500      -0.16018900       0.54128000
H       -3.97410700      -0.70971100      -1.34157800
C       -4.80402800       0.09696800       1.92473500
C       -6.20111100      -0.07318400      -0.08035400
C       -5.92652700       0.43779800       2.66653700
H       -3.82561400       0.02552800       2.38867500
C       -7.32068500       0.26777600       0.67201000
H       -6.28812400      -0.27195400      -1.14528800
C       -7.18215000       0.52307700       2.04206600
H       -5.83635900       0.63776900       3.72996600
H       -8.29597900       0.33580100       0.20026400
H       -8.05600900       0.79004400       2.63003600
C       -3.35955500       2.30517700      -1.58355400
C       -2.30386500       1.53469300      -1.71416100
H       -3.35718100       3.15640000      -0.90419200
H       -4.26350500       2.12622000      -2.16430800
C       -1.29063400       0.71973700      -1.78859700
H       -0.51647200       0.92295000      -2.53043400
Cl      -0.72065300      -2.70398500       0.53439800
Cl      -1.91092500      -2.16811200      -2.39094400
O        0.70622500      -1.00087900      -1.53562200
O       -0.22347100       0.01410300       0.75138300
C        2.32685700      -0.46507400       0.05518900
C        1.79831200       0.91854300       0.03762100
C       -0.03404500       2.34219600       0.58617800
C        2.23980800      -2.64628300      -0.90697100
C        3.31339800      -3.07253900      -0.17913400
C        3.41019200      -0.85469900       0.87478400
C        3.92127500      -2.19580900       0.74585300
C        2.57767800       2.03788500      -0.33063400
C        1.99651300       3.35056600      -0.20108000
C        0.67494700       3.46878500       0.28396200
H        0.20304100       4.43606300       0.41403100
N        1.75026200      -1.36263900      -0.78067600
N        0.51757900       1.08656200       0.44656100
H        3.66930600      -4.08713500      -0.31766300
C        3.90093200       1.91106700      -0.83765500
C        2.76541000       4.48643500      -0.55620700
C        4.04973900       4.32958300      -1.03183900
H        4.63520200       5.20212200      -1.30523700
C        4.61564900       3.03643500      -1.17878000
C        3.99351300       0.02128400       1.83249500
C        5.01535400      -2.60064500       1.55024100
C        5.56895000      -1.72179500       2.45623900
H        6.40492200      -2.03669700       3.07336600
C        5.04932400      -0.40931600       2.60282800
H        5.39876100      -3.61048700       1.44387200
H        5.48642700       0.26061000       3.33649800
H        3.59825200       1.02171400       1.96104400
H        4.33882800       0.92764200      -0.95904200
H        5.62293900       2.93444000      -1.57001000
H        2.32430900       5.47265300      -0.45076100
F        1.62128500      -3.40286200      -1.78821000
F       -1.26485200       2.36823700       1.05825200
