57
Properties=species:S:1:pos:R:3 pbc="F F F"
Si       1.11072500      -0.52205400       0.76627400
O        2.66213500       0.11708400      -0.12440600
C        3.70305300      -0.56088300      -0.33672400
C        4.90491200       0.02060300      -0.86443100
H        3.68961500      -1.63646200      -0.13410000
C        5.00679000       1.40195200      -1.14934000
C        6.00298100      -0.83746800      -1.09400300
C        6.19588500       1.90737600      -1.65533700
H        4.15495700       2.04832700      -0.96450500
C        7.19021800      -0.32097900      -1.60242400
H        5.90937500      -1.89630100      -0.86788400
C        7.28477700       1.04824100      -1.88149500
H        6.28749100       2.96637400      -1.87647200
H        8.03862500      -0.97421500      -1.78078400
H        8.21235100       1.45246600      -2.27746600
C        4.50264000      -1.12227400       2.81894900
C        3.25127900      -1.35927200       2.49925200
H        4.75855400      -0.42780000       3.61855000
H        5.32360300      -1.62703100       2.31085700
C        2.01763300      -1.54063000       2.12073400
H        1.42229400      -2.33414400       2.57330700
Cl       1.14528400       1.40517000       1.94417000
Cl       1.02618500      -2.36472500      -0.60672100
O        0.19414000       0.28781000      -0.69067800
O       -0.58314200      -0.86425500       1.55388400
C       -1.97609200       0.84200900      -0.03668000
C       -2.27297000      -0.60803500      -0.03940600
C       -1.82582900      -2.73892600       0.93523100
C       -0.40704400       2.54814700      -0.60336800
C       -1.31079200       3.54144500      -0.35753900
C       -2.94063700       1.82044200       0.29358600
C       -2.59678500       3.20938900       0.12213500
C       -3.27708200      -1.17882600      -0.85669800
C       -3.56163800      -2.58444200      -0.71282200
C       -2.81625700      -3.34240400       0.21664400
H       -2.99745600      -4.40144300       0.36134500
N       -0.73526400       1.22108700      -0.42572900
N       -1.55857600      -1.39296900       0.80164800
H       -1.01290300       4.57158300      -0.51673200
C       -3.99375500      -0.42430300      -1.82719600
C       -4.57293600      -3.17358000      -1.51102300
C       -5.26177700      -2.40972700      -2.42834400
H       -6.03339800      -2.86527600      -3.04141300
C       -4.96281600      -1.03238100      -2.59202800
C       -4.22288900       1.47964800       0.80663000
C       -3.55511100       4.20359000       0.43941400
C       -4.79398100       3.83945800       0.92162900
H       -5.52397800       4.60433600       1.16848300
C       -5.12469900       2.47256100       1.11345100
H       -3.29164200       5.24796100       0.30499500
H       -6.09846300       2.20873200       1.51377400
H       -4.47923400       0.43929000       0.96676500
H       -3.76759800       0.62519300      -1.97008200
H       -5.50062200      -0.45266600      -3.33555700
H       -4.78442300      -4.23130300      -1.39111400
F        0.81143900       2.77527000      -1.04747100
F       -1.08065300      -3.37779900       1.81401800
