57
Properties=species:S:1:pos:R:3 pbc="F F F"
Si      -0.94696000      -1.02441900      -0.92248100
O       -2.75158900      -0.77996900      -0.34647000
C       -3.19321800      -0.65574600       0.82293800
C       -4.55946900      -0.30809400       1.09278400
H       -2.51712100      -0.81280600       1.67055500
C       -5.48345600      -0.05979700       0.05052200
C       -4.95933100      -0.19733000       2.44309100
C       -6.78717600       0.29324100       0.36671300
H       -5.15564300      -0.14187200      -0.98032100
C       -6.26943500       0.15640000       2.74877200
H       -4.23792100      -0.39009600       3.23254700
C       -7.17921800       0.40060700       1.71212000
H       -7.50605900       0.48795600      -0.42323200
H       -6.58561300       0.24236300       3.78361500
H       -8.20252700       0.67742000       1.95060200
C       -3.27347200       1.95700600      -2.42989800
C       -2.19556500       1.22689300      -2.27568800
H       -3.42552200       2.86882600      -1.85419500
H       -4.04931300       1.67208800      -3.13969300
C       -1.13552600       0.48342900      -2.11207200
H       -0.26753400       0.68999700      -2.74124600
Cl      -0.68104800      -2.64229200       0.62722600
Cl      -1.58897700      -2.49920700      -2.44790900
O        0.88050500      -1.09654800      -1.47029500
O       -0.36077000       0.10330100       0.60385500
C        2.25238900      -0.29840600       0.21142100
C        1.65280700       1.03847100      -0.02374100
C       -0.26122400       2.44076700       0.29469200
C        2.45921300      -2.56792700      -0.53397400
C        3.45211100      -2.80462400       0.38278600
C        3.24635600      -0.50045500       1.19518400
C        3.85911100      -1.79876700       1.28419100
C        2.41801200       2.13647600      -0.47347900
C        1.78874300       3.42905000      -0.52251100
C        0.44746400       3.54676800      -0.09912500
C        3.64491300       0.51985700       2.10201800
C        4.85945000      -2.02972000       2.26165500
C        3.76996500       2.00381600      -0.89190800
C        2.53440600       4.54748300      -0.97080900
H       -0.04037600       4.51450300      -0.08444300
Cl      -1.87441000       2.53755900       0.87178200
N        1.85368900      -1.31929200      -0.58181900
N        0.34356600       1.19191500       0.28357600
Cl       1.95236900      -3.74496600      -1.66840600
H        3.91729300      -3.78305900       0.40713600
C        3.84623400       4.38821000      -1.36447400
C        4.46270100       3.11062000      -1.32917500
H        4.24672300       1.03089300      -0.87665400
H        2.05505400       5.52094400      -1.00134300
H        4.41505400       5.24547500      -1.71138600
H        5.49216300       3.00429800      -1.65649700
C        5.22988000      -1.01780000       3.12124100
C        4.61559900       0.25906300       3.04299300
H        3.17866100       1.49667400       2.05691500
H        5.31940100      -3.01129600       2.32088200
H        5.99429500      -1.19708000       3.87118200
H        4.91201600       1.03846000       3.73791900
