57
Properties=species:S:1:pos:R:3 pbc="F F F"
Si      -0.55223000      -1.98214300       0.33290000
O       -1.80003800      -0.51793100      -0.29002700
C       -3.02659700      -0.66468300      -0.49770400
C       -3.89460800       0.42837600      -0.85064500
H       -3.47070300      -1.66211700      -0.40305000
C       -3.40313200       1.73395900      -1.07904800
C       -5.27631500       0.16055700      -0.95998600
C       -4.28837400       2.75215700      -1.40165000
H       -2.33762700       1.92237800      -1.01154200
C       -6.15800100       1.18922300      -1.27923000
H       -5.63991800      -0.84913400      -0.78693700
C       -5.66394100       2.48081000      -1.49861300
H       -3.91994000       3.75727500      -1.58387900
H       -7.22218400       0.99134000      -1.36040000
H       -6.35160000       3.28297600      -1.75183300
C       -4.03881900      -3.72516600       1.49224200
C       -2.88486600      -3.11783300       1.63487000
H       -4.96530200      -3.16044800       1.39035200
H       -4.10729400      -4.81208400       1.46954800
C       -1.73994300      -2.50370700       1.75003000
H       -1.37894700      -2.25348900       2.74851600
Cl       1.12293100      -3.26584800       1.01464700
Cl      -1.31674700      -3.31116700      -1.25029300
O        0.48455300      -1.10536300      -1.01567100
O        0.14663100      -0.59946900       1.54988700
C        2.11874500       0.23304900      -0.05498900
C        1.03287400       1.15671400       0.33993900
C       -0.88044100       1.51066200       1.73328300
C        2.74346900      -1.66437800      -1.37983300
C        4.07263800      -1.42476200      -1.13804600
C        3.47067300       0.49469100       0.26079500
C        4.47667400      -0.36968900      -0.29372600
C        0.98012700       2.49331800      -0.12160000
C       -0.04639200       3.35147200       0.40285600
C       -0.94848200       2.82553600       1.35293500
C        3.86224400       1.56081400       1.11655800
C        5.84068300      -0.13057600       0.00731200
C        1.87837700       3.00356800      -1.09714900
C       -0.13094100       4.69269400      -0.04529000
H       -1.72045600       3.45393300       1.78137500
Cl      -1.97156500       0.82409100       2.86298800
N        1.78182400      -0.84960600      -0.79449400
N        0.10185400       0.68481500       1.19847200
Cl       2.21379400      -2.91024400      -2.42606100
H        4.81107800      -2.06746200      -1.60278800
C        0.76286200       5.16253500      -0.98459400
C        1.76610300       4.31163200      -1.51470300
H        2.64137800       2.36096100      -1.51953800
H       -0.90860100       5.33350100       0.35871800
H        0.69671000       6.18981700      -1.32964300
H        2.45063000       4.69472800      -2.26494500
C        6.19007400       0.91550300       0.83441400
C        5.19595700       1.75948100       1.39461100
H        3.11035800       2.20476200       1.55715400
H        6.59499100      -0.78537200      -0.41755700
H        7.23513800       1.09453900       1.06831700
H        5.49169200       2.56763800       2.05616100
