63
Properties=species:S:1:pos:R:3 pbc="F F F"
Si      -1.05796600      -0.60500300      -1.13491800
O       -2.83952600      -0.12097200      -0.61043700
C       -3.25335900       0.22530300       0.52750700
C       -4.65395000       0.39114100       0.81963900
H       -2.53474300       0.45538100       1.31609200
C       -5.65556800       0.12105500      -0.13881500
C       -5.00620300       0.84950900       2.10692300
C       -6.99002600       0.30838600       0.19687800
H       -5.36878400      -0.23063500      -1.12463200
C       -6.34554500       1.03666600       2.43352900
H       -4.22397200       1.05183400       2.83427200
C       -7.33465000       0.76511000       1.47947100
H       -7.76830100       0.10270900      -0.53174100
H       -6.62303800       1.38996700       3.42189000
H       -8.38106500       0.90930800       1.73409100
C       -2.64510100      -2.36054000       2.11938000
C       -1.84035100      -2.30266300       1.08115100
H       -2.31214800      -2.06279000       3.11304900
H       -3.66419900      -2.73267300       2.02088700
C       -1.10442200      -2.16835800       0.01654600
H       -0.50342100      -3.02192100      -0.29542600
Cl      -1.08045800       1.26940700      -2.37042600
Cl      -1.88791800      -1.79488600      -2.84759100
O       -0.37190900       0.35883200       0.39455900
O        0.71218300      -0.82538300      -1.74224900
C        1.84153600       0.88753800       0.01718800
C        2.12767500      -0.56525300       0.07688700
C        1.96952800      -2.68567000      -1.06719900
C        0.21681400       2.63188600       0.38038300
C        1.20005800       3.57730100       0.21032300
C        2.86823200       1.83526600      -0.20336500
C        2.52979600       3.22814100      -0.10863100
C        2.99354700      -1.11435000       1.05102300
C        3.35487800      -2.49982400       0.92996600
C        2.84580600      -3.23590900      -0.16160100
C        4.20184600       1.46241100      -0.52794800
C        3.53712200       4.20230900      -0.32251900
C        3.49583200      -0.35486700       2.14332200
C        4.22139700      -3.07610800       1.89244000
H        3.14203700      -4.27024700      -0.29841400
C        1.42338500      -3.40087600      -2.25818000
N        0.57579500       1.30109700       0.24014500
N        1.60117400      -1.36285700      -0.87724400
C       -1.19612400       2.94881400       0.74141800
H        0.92945100       4.62206000       0.32004300
C        4.82340200       3.81137100      -0.62776000
C        5.15360000       2.43557600      -0.73582500
H        4.46354100       0.41498000      -0.61997200
H        3.27470600       5.25320400      -0.24616400
H        5.59264000       4.55943100      -0.79450200
H        6.16874300       2.14766300      -0.99102300
C        4.32925100      -0.94930300       3.06434100
C        4.69948700      -2.31326100       2.93662800
H        4.49449800      -4.12226700       1.79234300
H        3.21183300       0.68505400       2.25451800
H        4.70436600      -0.36945200       3.90195600
H        5.36110400      -2.75752200       3.67420000
H        1.82012600      -4.41802600      -2.27487100
H        0.32984800      -3.42861200      -2.25021300
H        1.71540700      -2.87579800      -3.17501000
H       -1.47038300       2.45382100       1.67929400
H       -1.29849400       4.02917600       0.86240600
H       -1.87795900       2.60623700      -0.04182500
