63
Properties=species:S:1:pos:R:3 pbc="F F F"
Si      -0.58807300      -2.02324900       0.34117200
O       -1.84223100      -0.62310500      -0.20165100
C       -3.00877900      -0.75499300      -0.65473600
C       -3.91053100       0.35914200      -0.81647500
H       -3.34452600      -1.74118500      -0.98624100
C       -3.52469200       1.68600800      -0.52846700
C       -5.21120700       0.08841000      -1.29187400
C       -4.43453600       2.72007800      -0.70266300
H       -2.51712900       1.88406100      -0.18263200
C       -6.11927100       1.12944600      -1.45964300
H       -5.49629400      -0.93637600      -1.51491100
C       -5.73170900       2.44240200      -1.16340400
H       -4.14341300       3.74379900      -0.48671900
H       -7.12291000       0.92534200      -1.81960700
H       -6.44008200       3.25544500      -1.29628200
C       -4.34996000      -2.09126300       1.77388400
C       -3.06623700      -2.37515200       1.80640100
H       -4.74091500      -1.19034800       2.24592400
H       -5.06608700      -2.76035200       1.29822100
C       -1.78447100      -2.58927000       1.75985200
H       -1.30186400      -3.14307400       2.56583600
Cl       1.07329700      -3.37735500       0.98217100
Cl      -1.38469200      -3.44753100      -1.20469400
O        0.39231800      -1.19732400      -1.04057800
O        0.17496400      -0.72278800       1.54235400
C        2.12047100       0.06660200      -0.14787200
C        1.09672900       1.02114100       0.32950700
C       -0.70622800       1.41562600       1.88145100
C        2.58437200      -1.84152300      -1.55121500
C        3.93299300      -1.63218700      -1.38038900
C        3.49887000       0.27338900       0.09212200
C        4.43421300      -0.61159600      -0.54524100
C        1.09142400       2.37706600      -0.07944700
C        0.16494100       3.26969200       0.55808900
C       -0.69124700       2.75061600       1.55421100
C        3.98277200       1.29951900       0.94997400
C        5.82266600      -0.42621000      -0.32586800
C        1.94555700       2.87423200      -1.10164600
C        0.13708000       4.63320800       0.17230800
H       -1.38055700       3.41114200       2.06927700
C       -1.60569700       0.80559600       2.90201700
N        1.71774000      -0.99044100      -0.88529200
N        0.18665100       0.58229900       1.22447200
C        2.00095700      -2.89687200      -2.42780800
H        4.62121800      -2.28942300      -1.90093500
C        6.26328400       0.58494200       0.50076400
C        5.33755800       1.44554300       1.14655500
H        3.28394300       1.95323100       1.45851600
H        6.52400400      -1.09621600      -0.81384200
H        7.32707300       0.72256800       0.66985300
H        5.70309000       2.22362900       1.80951900
C        1.88769600       4.20392800      -1.45669700
C        0.98558100       5.09010000      -0.81408100
H       -0.56394700       5.30261900       0.66200200
H        2.63150300       2.20485600      -1.60723200
H        2.53609800       4.57779400      -2.24302900
H        0.96134300       6.13463100      -1.10986200
H       -2.22338100       0.02341100       2.45377700
H       -1.01635700       0.32874300       3.69332500
H       -2.23982900       1.58321300       3.33273000
H        1.35290400      -2.44472800      -3.18680500
H        2.81245800      -3.44300400      -2.91349000
H        1.38366300      -3.58421500      -1.84380900
