63
Properties=species:S:1:pos:R:3 pbc="F F F"
Si       1.04204400      -0.65739500      -1.42808300
O        1.92708400       0.50088200      -0.11424100
C        3.04560800       0.68582500       0.42500700
C        3.67372000      -0.16745600       1.39792600
H        3.56271400       1.62469700       0.18273600
C        2.99443700      -1.25044900       2.00218400
C        4.99733000       0.14363400       1.78409600
C        3.64382600      -2.01286100       2.96410500
H        1.97145900      -1.46343900       1.71754100
C        5.64566300      -0.63770700       2.73323300
H        5.50363600       0.98665600       1.32075700
C        4.96784500      -1.71452000       3.32190100
H        3.12814000      -2.84245300       3.43841000
H        6.66798700      -0.41353400       3.02158000
H        5.47091500      -2.32076800       4.07037800
C        4.60817800       0.74175200      -2.40452800
C        3.35921200       0.44259500      -2.68326600
H        4.88808100       1.74565700      -2.08642600
H        5.40611800       0.00961800      -2.52267200
C        2.10869900       0.12972800      -2.83352800
H        1.59437600       0.27375500      -3.78296700
Cl      -0.33392900      -1.72327300      -2.79713900
Cl       2.39055100      -2.34142400      -1.01486200
O        0.04232100      -1.12472300       0.14289700
O       -0.19470800       0.90443400      -1.61612100
C       -2.03960500      -0.13223300       0.03565400
C       -1.37333400       1.15394200       0.34441600
C       -0.00984700       2.94596900      -0.44950900
C       -1.86628300      -2.51548200       0.10869600
C       -3.21817400      -2.63664100      -0.07241200
C       -3.43522900      -0.20441100      -0.18572900
C       -4.03738400      -1.50363300      -0.27850700
C       -1.67435500       1.85822300       1.53659100
C       -1.10273900       3.16212600       1.70878500
C       -0.30095200       3.68251400       0.66813500
C       -4.24218100       0.95253500      -0.34019700
C       -5.42619200      -1.61184900      -0.52051900
C       -2.49438900       1.31840400       2.56140700
C       -1.37366100       3.89440700       2.88827400
H        0.09409700       4.68738700       0.75223500
C        0.82431700       3.52815300      -1.59127100
N       -1.29373300      -1.25262200       0.07874700
N       -0.51679800       1.65659700      -0.56640200
C       -0.99285700      -3.72501500       0.45387700
H       -3.66428200      -3.62296100      -0.04955100
F       -1.79136100      -4.78174000       0.75360400
F       -0.23303600      -3.48048300       1.54952900
F       -0.18993700      -4.10327400      -0.54985200
F        2.06885100       3.00978200      -1.62931700
F        0.95780600       4.86799900      -1.41588000
F        0.24461700       3.34159300      -2.79519500
C       -6.18816500      -0.46989800      -0.67026400
C       -5.59266200       0.81290500      -0.58223900
H       -3.79493200       1.93835800      -0.28789500
H       -5.87602400      -2.59751300      -0.58680500
H       -7.25396600      -0.55120500      -0.85991700
H       -6.20768400       1.69758000      -0.71339500
C       -2.73514200       2.05534200       3.70249400
C       -2.17866900       3.34766600       3.86762300
H       -0.93944500       4.88225300       3.00707400
H       -2.91853200       0.32686600       2.45627600
H       -3.35627800       1.63641300       4.48798900
H       -2.38599100       3.90716700       4.77451400
