63
Properties=species:S:1:pos:R:3 pbc="F F F"
Si      -0.30063100      -1.86881200       0.74663900
O       -1.67597600      -0.95267500      -0.26890100
C       -2.71277200      -1.44214300      -0.79110900
C       -3.77376800      -0.62510200      -1.32160200
H       -2.80078900      -2.52678700      -0.88777400
C       -3.70176100       0.78467300      -1.34291400
C       -4.90749500      -1.28325600      -1.84451900
C       -4.75442500       1.51932200      -1.87014300
H       -2.81906700       1.27874800      -0.95585000
C       -5.96141700      -0.53998000      -2.36692300
H       -4.94990500      -2.36914000      -1.82541100
C       -5.88492100       0.85844400      -2.37786900
H       -4.70468500       2.60388300      -1.89286000
H       -6.83832200      -1.04102900      -2.76487200
H       -6.70707600       1.43880300      -2.78733200
C       -4.07094100      -2.65210400       1.74869500
C       -2.79440900      -2.49210700       2.01635700
H       -4.47713500      -3.62536500       1.47590400
H       -4.76542600      -1.81584000       1.81991000
C       -1.52311700      -2.27931600       2.17996400
H       -1.07541600      -2.34687900       3.17123300
Cl       1.50672900      -2.49722500       1.87688600
Cl      -0.55820700      -3.74238700      -0.39385700
O        0.72920000      -1.17602400      -0.72298400
O       -0.04905600      -0.07188600       1.62521300
C        1.99882900       0.61119000       0.00426400
C        0.75526400       1.41332700       0.05567700
C       -1.24888100       1.91582400       1.25099500
C        3.08180700      -1.33995400      -0.85124900
C        4.30707500      -0.82381800      -0.52265200
C        3.23903200       1.17371200       0.39186900
C        4.43034000       0.41249700       0.14991900
C        0.60503500       2.56759200      -0.75370800
C       -0.52318400       3.41908300      -0.51082400
C       -1.40848900       3.07216000       0.53428000
C        3.33760600       2.43984500       1.02553500
C        5.68451800       0.93419600       0.54307900
C        1.51464600       2.90042600      -1.79065900
C       -0.70797400       4.57961000      -1.29772000
H       -2.23927400       3.72631100       0.76809100
C       -2.20430600       1.53893200       2.38191300
N        1.93788300      -0.63368400      -0.50579500
N       -0.18317100       1.07116700       0.96053000
C        2.95605100      -2.62353800      -1.67931600
H        5.19868700      -1.37610000      -0.79139500
F        4.17473500      -2.94763400      -2.18581400
F        2.12499900      -2.44857000      -2.73279300
F        2.53155700      -3.67499000      -0.96393700
F       -1.55291400       1.23523300       3.52385500
F       -2.99183900       0.49721400       2.04441400
F       -3.02268700       2.58649800       2.65411200
C        5.75170100       2.16684900       1.16160400
C        4.57452000       2.91745700       1.40435500
H        2.44420600       3.02027300       1.22402400
H        6.58130300       0.35316100       0.35171900
H        6.71291100       2.56778500       1.46800100
H        4.64758100       3.88039500       1.89990300
C        1.30356200       4.03617000      -2.54518100
C        0.19399500       4.88178400      -2.29830800
H       -1.56376400       5.21828400      -1.10172100
H        2.36259800       2.25834200      -1.99795600
H        1.99605000       4.28310400      -3.34382000
H        0.05377700       5.77072400      -2.90539300
