63
Properties=species:S:1:pos:R:3 pbc="F F F"
Si      -0.83931800      -1.16978000      -0.42985100
O       -2.55344200      -0.93515000       0.31962500
C       -3.66873900      -1.19279400      -0.20949400
C       -4.91184600      -0.79137600       0.39160800
H       -3.70100400      -1.77994400      -1.13149000
C       -4.95947400      -0.08357700       1.61377700
C       -6.10543400      -1.13121200      -0.28125300
C       -6.18980500       0.27772900       2.14535300
H       -4.03390900       0.16900800       2.11959300
C       -7.33337300      -0.76151900       0.25758600
H       -6.05236300      -1.67538600      -1.22056800
C       -7.37386100      -0.05846200       1.46854200
H       -6.23889700       0.82022900       3.08464800
H       -8.25490400      -1.01710600      -0.25616800
H       -8.33280100       0.22927800       1.89083300
C       -3.59024300       0.87492800      -2.54195900
C       -2.36982200       0.48644100      -2.25089700
H       -4.22496000       0.28474100      -3.20173300
H       -3.99658300       1.80475800      -2.14774500
C       -1.19644700       0.04716900      -1.89970200
H       -0.33497600       0.31713400      -2.51235100
Cl      -0.35598400      -2.35738300       1.38123500
Cl      -1.36587500      -2.97205500      -1.62467800
O        0.98609800      -1.22490800      -1.07485000
O       -0.32775400       0.34858000       0.78046200
C        2.29395800       0.07136900       0.31729100
C        1.55523100       1.26080200      -0.17459900
C       -0.42372700       2.58198900       0.03027100
C        2.81831800      -2.23865500      -0.00125100
C        3.82848600      -2.15624200       0.91960600
C        3.31213700       0.20480100       1.29149900
C        4.08462300      -0.95807300       1.62405400
C        2.19439000       2.26812800      -0.93454300
C        1.45252100       3.46123500      -1.23014900
C        0.15670000       3.59788500      -0.68143200
C        3.57667300       1.43065000       1.95601800
C        5.09763500      -0.86447100       2.60640600
C        3.51650600       2.12781100      -1.42984400
C        2.04972400       4.47696700      -2.01165300
H       -0.38567600       4.52551600      -0.81585900
C       -1.74890800       2.75791000       0.77069000
N        2.02343000      -1.12611900      -0.23612100
N        0.27017800       1.39377400       0.20487300
C        2.61776300      -3.48077100      -0.87265700
H        4.44780200      -3.02585500       1.10063600
F        3.61792200      -4.36684300      -0.63201000
F        2.68036400      -3.15699400      -2.18800800
F        1.45881000      -4.11335000      -0.64458700
F       -2.73042600       1.95254500       0.32848500
F       -2.18365200       4.03418700       0.62976400
F       -1.58383400       2.53060000       2.09694900
C        5.33266000       0.33992400       3.23941700
C        4.56802600       1.48741900       2.91314700
H        2.99324900       2.31349600       1.72244300
H        5.67867200      -1.74850600       2.84966600
H        6.10782300       0.41234000       3.99599900
H        4.76252500       2.42328700       3.42751200
C        4.06780800       3.13506600      -2.19425200
C        3.33603500       4.31283700      -2.48637400
H        1.48232800       5.37686600      -2.22782000
H        4.08337600       1.22793300      -1.22004700
H        5.07561100       3.02271200      -2.58138900
H        3.79453200       5.09033500      -3.08945200
