75
Properties=species:S:1:pos:R:3 pbc="F F F"
Si      -0.78350200      -1.16825800      -0.81273300
O       -2.64009600      -1.09510400      -0.29765700
C       -3.13479300      -0.97970400       0.85069300
C       -4.52609300      -0.69647700       1.06177400
H       -2.48436700      -1.08334800       1.72638200
C       -5.41208200      -0.48508300      -0.02082000
C       -4.98715200      -0.59658900       2.39337100
C       -6.74064700      -0.18044400       0.23723700
H       -5.03351900      -0.54950300      -1.03576700
C       -6.32200000      -0.29323500       2.64024500
H       -4.29225600      -0.75562000       3.21386500
C       -7.19453900      -0.08621400       1.56409300
H       -7.43079300      -0.01193800      -0.58383300
H       -6.68606200      -0.21623500       3.65995300
H       -8.23673800       0.15287900       1.75721900
C       -3.49069000       1.08823700      -2.85175100
C       -2.30604300       0.62601400      -2.53023500
H       -3.88577800       2.00015900      -2.40807500
H       -4.11653100       0.56993000      -3.57772500
C       -1.14448900       0.13555600      -2.19500800
H       -0.27400800       0.45097800      -2.77376200
Cl      -0.39299500      -2.59599800       0.91708000
Cl      -1.22157800      -2.89898400      -2.16550100
O        1.02323900      -1.09612300      -1.31468000
O       -0.43045400       0.15740500       0.54588400
C        2.22434300       0.01107900       0.31366000
C        1.50098900       1.24100500      -0.08946400
C       -0.59721400       2.43966800      -0.03354300
C        2.69591500      -2.30687600      -0.19005300
C        3.66519300      -2.30578800       0.78624700
C        3.18355600       0.02639400       1.35096200
C        3.92748300      -1.17779400       1.59181100
C        2.17861800       2.36328600      -0.61401100
C        1.41981900       3.56196800      -0.83297100
C        0.04782800       3.56060300      -0.50256200
C        3.42099600       1.16949200       2.16413000
C        4.90173200      -1.19474900       2.62222000
C        3.56134200       2.33888200      -0.94619400
C        2.07089700       4.70581200      -1.36036200
H       -0.52667200       4.46910100      -0.63585400
C       -2.04689900       2.38665000       0.38040000
N        1.98774100      -1.12746300      -0.37204100
N        0.16806500       1.29163800       0.12417200
C        2.39974500      -3.46170900      -1.11237500
H        4.23498000      -3.21302900       0.94760500
C        5.11976000      -0.06882000       3.38680900
C        4.37032800       1.11519300       3.15971200
H        2.84766700       2.07536200       2.00483200
H        5.46416600      -2.10726100       2.79593300
H        5.86524200      -0.08501500       4.17630700
H        4.54524400       1.98655400       3.78321900
C        3.41428600       4.65672600      -1.66660200
C        4.15960700       3.46592500      -1.46336000
H        4.13517300       1.43095400      -0.80181100
H        1.49358100       5.61142000      -1.52140400
H        3.91012000       5.53288500      -2.07373000
H        5.21303500       3.44316000      -1.72469800
H        1.31965200      -3.48547100      -1.26669100
C        3.07388200      -3.21320600      -2.48130400
C        2.83067100      -4.81102500      -0.52312300
H        2.80919800      -4.02923700      -3.16227700
H        2.73904600      -2.26959400      -2.92191500
H        4.16447000      -3.19086600      -2.36898200
H        2.49436900      -5.60724200      -1.19471400
H        3.92128700      -4.88501700      -0.43679500
H        2.38533200      -4.97534000       0.46393800
C       -2.86597500       3.55145900      -0.19006100
H       -2.45591200       1.45929700      -0.02231700
C       -2.16057200       2.34947100       1.92161200
H       -2.75780200       3.62427600      -1.27686000
H       -3.92146600       3.38621500       0.04752400
H       -2.56671300       4.50624200       0.25777500
H       -1.77073300       3.28036100       2.34893500
H       -3.21617200       2.25622700       2.19848100
H       -1.60923100       1.50611300       2.34629600
