75
Properties=species:S:1:pos:R:3 pbc="F F F"
Si      -0.29018000      -1.81741500       0.90875800
O       -1.77816300      -0.83702700       0.06165600
C       -2.93659400      -1.28347800      -0.11509500
C       -3.95149200      -0.53805700      -0.80973000
H       -3.19613300      -2.26781200       0.29015500
C       -3.68922500       0.72923100      -1.37942200
C       -5.24172900      -1.10336900      -0.89654600
C       -4.71156400       1.41671400      -2.01683700
H       -2.69116500       1.14879200      -1.31400900
C       -6.26136400      -0.40578700      -1.53745200
H       -5.42803100      -2.07936900      -0.45623700
C       -5.99587500       0.85112200      -2.09431400
H       -4.52103500       2.39065500      -2.45755800
H       -7.25678500      -0.83326100      -1.60538300
H       -6.79169200       1.39570600      -2.59490000
C       -1.83356500      -3.61269900      -2.35288100
C       -1.27413000      -3.57700700      -1.16576900
H       -2.91716400      -3.62631400      -2.46771200
H       -1.23145300      -3.64806500      -3.25996700
C       -0.73484200      -3.46775800       0.01629800
H       -0.49442200      -4.36575500       0.58667000
Cl      -1.61597400      -2.30982400       2.68049400
Cl       1.55166400      -2.61101800       1.88185100
O        0.58550100      -1.17866900      -0.64726300
O        0.11947500      -0.15870400       1.72384900
C        1.99741900       0.55077000      -0.07100400
C        0.78035200       1.37092800       0.11505800
C       -1.21389900       1.76341500       1.42261000
C        2.88752000      -1.52584600      -0.93091200
C        4.15990100      -1.02865300      -0.77257300
C        3.29357700       1.06803000       0.14921900
C        4.41112900       0.24325200      -0.21343700
C        0.55563000       2.53654900      -0.65564500
C       -0.59464300       3.33419900      -0.34282800
C       -1.42991800       2.92350500       0.71707400
C        3.52336100       2.34693700       0.72646200
C        5.72555100       0.73219300      -0.00528000
C        1.39840900       2.92143400      -1.73506000
C       -0.85680600       4.50274800      -1.10098400
H       -2.28543100       3.53451000       0.97841600
C       -2.05135400       1.30280600       2.58612500
N        1.83958100      -0.70455400      -0.53762100
N       -0.10852400       1.00085200       1.06124900
C        2.54202000      -2.85497100      -1.55296400
H        4.99670600      -1.64856600      -1.07156700
C        5.92043600       1.97984600       0.54806600
C        4.81378300       2.78671600       0.92061900
H        2.68303500       2.96456600       1.02198600
H        6.56775800       0.10576600      -0.28313600
H        6.92852400       2.34994100       0.70947700
H        4.98833100       3.75946000       1.36990500
C       -0.01724100       4.85817300      -2.13513400
C        1.11074000       4.05921600      -2.45585200
H        2.25771000       2.31435000      -1.99457400
H       -1.72689800       5.10399500      -0.85450200
H       -0.22021000       5.75273900      -2.71628600
H        1.75177500       4.34635600      -3.28358400
H        1.71582900      -3.27722700      -0.97715600
C        2.04431100      -2.63569500      -3.00054100
C        3.71364100      -3.84369900      -1.51803300
H        1.75534300      -3.60199000      -3.42784300
H        1.17627800      -1.97082300      -3.02396400
H        2.84405500      -2.20675200      -3.61588100
H        3.36736400      -4.80975400      -1.89853600
H        4.54101000      -3.50980200      -2.15572500
H        4.08687600      -3.98276600      -0.49772800
C       -3.46493100       1.90110500       2.57392100
H       -2.13644200       0.21772400       2.52258000
C       -1.32105500       1.63161000       3.90893500
H       -3.97469700       1.71388400       1.62235900
H       -4.04531000       1.43660400       3.37714000
H       -3.44706000       2.98195000       2.75712600
H       -1.21683400       2.71685800       4.02631500
H       -1.91088000       1.24358500       4.74626100
H       -0.33038300       1.16920100       3.93748700
