75
Properties=species:S:1:pos:R:3 pbc="F F F"
Si       0.95830100       0.88340200      -0.52822600
O        2.63288800       0.35854600       0.26422300
C        3.73957600       0.33401800      -0.33235400
C        4.95736400      -0.04742000       0.32661600
H        3.77998600       0.59350700      -1.39531800
C        4.97842600      -0.44471300       1.68361700
C        6.14956500      -0.02825600      -0.42978600
C        6.18144500      -0.81758400       2.26572600
H        4.05305100      -0.45383500       2.25016100
C        7.35124600      -0.40100700       0.16425900
H        6.11616100       0.27899300      -1.47169500
C        7.36491300      -0.79517900       1.50803800
H        6.21095300      -1.12653300       3.30614700
H        8.27241800      -0.38767500      -0.40980400
H        8.30285700      -1.08817700       1.97177500
C        3.76137600       3.70935700      -1.05047800
C        2.70561500       3.00881100      -1.39251800
H        4.76760600       3.38079300      -1.30956600
H        3.66401500       4.64931700      -0.50830200
C        1.67301300       2.26184300      -1.66685900
H        1.15786300       2.37983000      -2.62121700
Cl       1.30180300      -0.65901600      -2.21956000
Cl       0.69464400       2.23237300       1.26431100
O        0.27393800      -0.43504500       0.62413900
O       -0.75868200       1.12123400      -1.22681900
C       -1.78997100      -1.11472800      -0.15886500
C       -2.29853000       0.21902900       0.23782700
C       -2.25500000       2.60135200      -0.18651400
C        0.04231600      -2.68836900      -0.01038400
C       -0.77569500      -3.66758500      -0.52378700
C       -2.63269200      -2.08764300      -0.74232900
C       -2.10210900      -3.40846400      -0.92864200
C       -3.32936200       0.36624100       1.19504900
C       -3.84270800       1.68686100       1.42710800
C       -3.29240600       2.76475700       0.70144500
C       -3.96261600      -1.80207800      -1.15843800
C       -2.92626900      -4.41014200      -1.50155100
C       -3.84990700      -0.72624000       1.94234900
C       -4.87946700       1.86911600       2.37728100
H       -3.68365000       3.76252400       0.86053000
C       -1.63732100       3.70139300      -1.01300300
N       -0.50451000      -1.41961400       0.12312600
N       -1.78414000       1.30896100      -0.36883200
C        1.45020700      -2.91067000       0.48355100
H       -0.37650500      -4.66836500      -0.63546100
C       -4.21536400      -4.10867000      -1.88546900
C       -4.73133900      -2.79662300      -1.71992200
H       -4.36208200      -0.80133300      -1.04288400
H       -2.52127800      -5.40883200      -1.63452900
H       -4.84355900      -4.87678400      -2.32668500
H       -5.74309800      -2.57492200      -2.04511600
C       -5.37514800       0.78993400       3.07694300
C       -4.85100600      -0.51134500       2.86288800
H       -3.45046200      -1.72224700       1.79396100
H       -5.26543000       2.86994300       2.54533500
H       -6.16665800       0.93335900       3.80646500
H       -5.24049700      -1.34640400       3.43694100
H        2.02906700      -2.02984900       0.20977400
C        1.45031500      -3.02020300       2.02529700
C        2.11336600      -4.13543600      -0.15902300
H        2.48322600      -3.12925800       2.37402500
H        1.01912800      -2.12643000       2.48561500
H        0.87971300      -3.90038800       2.34439600
H        3.15779300      -4.17706100       0.16604100
H        1.62953900      -5.06815100       0.15370600
H        2.08818000      -4.07123600      -1.25207300
C       -1.87079700       5.09097000      -0.40673200
H       -0.56049800       3.51975800      -1.03996600
C       -2.17452600       3.63196100      -2.46114400
H       -1.51745800       5.13726700       0.62888500
H       -1.31809700       5.82729700      -0.99867100
H       -2.93112600       5.36881100      -0.43271400
H       -3.25434400       3.82198000      -2.47413800
H       -1.67828900       4.40139500      -3.06254900
H       -1.97799500       2.65499400      -2.91223000
