75
Properties=species:S:1:pos:R:3 pbc="F F F"
Si      -0.92913200      -0.90098100      -0.95686600
O       -2.78985900      -0.55300900      -0.59894100
C       -3.30995000      -0.02859900       0.42054300
C       -4.73348200      -0.01517300       0.63916800
H       -2.67452700       0.47152100       1.15371800
C       -5.63269900      -0.63272900      -0.25820200
C       -5.21727100       0.64851000       1.78706800
C       -6.99644800      -0.58212700      -0.00142500
H       -5.24505100      -1.13949200      -1.13609100
C       -6.58540500       0.69614600       2.03469800
H       -4.51383200       1.11392700       2.47226900
C       -7.47214100       0.08092700       1.14153700
H       -7.69647200      -1.05445100      -0.68390000
H       -6.96403200       1.20491500       2.91583200
H       -8.54069600       0.11616000       1.33527100
C       -2.34717400      -2.03172400       2.63597400
C       -1.57528600      -2.15077500       1.57854500
H       -2.00088600      -1.52808800       3.53785500
H       -3.35058400      -2.45559700       2.64985500
C       -0.87840300      -2.20481600       0.48123500
H       -0.25321900      -3.08071100       0.31053000
Cl      -1.08830600       0.66114300      -2.55742000
Cl      -1.53114200      -2.49900700      -2.42367300
O       -0.45045100       0.43897600       0.35143300
O        0.88910200      -1.04403800      -1.42443500
C        1.70523300       1.12297000      -0.07167800
C        2.13327300      -0.23221900       0.34645700
C        2.25257500      -2.57062700      -0.25141200
C       -0.10644900       2.71330200      -0.18760100
C        0.79240700       3.68808400      -0.55145400
C        2.64347400       2.09203400      -0.49153800
C        2.16468600       3.42140800      -0.74139300
C        2.97372400      -0.43049800       1.46447700
C        3.46430000      -1.75735300       1.70710300
C        3.10110000      -2.78439400       0.80996200
C        4.01941200       1.79454500      -0.69414600
C        3.07892200       4.41955900      -1.16307800
C        3.32573600       0.62047800       2.35570100
C        4.30612600      -1.99026700       2.82376400
H        3.49493800      -3.78205800       0.96147800
C        1.87840100      -3.60593500      -1.28182400
N        0.39509500       1.43433900       0.01661200
N        1.76064600      -1.28203600      -0.41466500
C       -1.57231700       2.95250500       0.07177400
H        0.42434900       4.69381700      -0.71401500
C        4.40976400       4.10636300      -1.34098500
C        4.87836600       2.78643100      -1.11184100
H        4.38597800       0.78705400      -0.53544600
H        2.70999500       5.42419800      -1.34747400
H        5.10820400       4.87098400      -1.66767900
H        5.92644500       2.55524000      -1.27504200
C        4.63824600      -0.95127400       3.66713200
C        4.14044800       0.35723400       3.43407500
H        2.94280700       1.62085500       2.19089300
H        4.67833400      -2.99490300       3.00054600
H        5.28188500      -1.13220100       4.52286100
H        4.40195100       1.15864300       4.11817100
H       -2.10820100       2.09801500      -0.34370500
C       -1.82654800       3.01828900       1.59467300
C       -2.10150900       4.21251100      -0.62533900
H       -2.90067900       3.13116500       1.77662900
H       -1.47361100       2.11466600       2.10228200
H       -1.30994900       3.88414100       2.02438100
H       -3.18415700       4.26667000      -0.47360700
H       -1.65852100       5.12167500      -0.20280300
H       -1.89915600       4.18552700      -1.70108000
C        2.04242600      -5.04084300      -0.76420100
H        0.83069800      -3.44983400      -1.54849800
C        2.71562000      -3.37730800      -2.56250000
H        1.48179300      -5.20123200       0.16357900
H        1.66336700      -5.73100000      -1.52403300
H        3.09591600      -5.28558100      -0.58463600
H        3.78069100      -3.53057600      -2.35257200
H        2.40140200      -4.09800800      -3.32491300
H        2.56780400      -2.36738700      -2.95566200
