75
Properties=species:S:1:pos:R:3 pbc="F F F"
Si      -0.98356000      -0.74978700      -0.63578400
O       -2.66702900      -0.12556900      -0.01197400
C       -3.59206300      -0.73535100       0.58777500
C       -4.90046700      -0.15321800       0.73972000
H       -3.38835200      -1.70559900       1.04855200
C       -5.22844200       1.09489900       0.16390600
C       -5.85916100      -0.86286100       1.49336800
C       -6.50140300       1.61816600       0.34576300
H       -4.48245100       1.62509000      -0.41936100
C       -7.13193300      -0.32932500       1.67218900
H       -5.59326200      -1.82323900       1.92692500
C       -7.45110900       0.90797600       1.09862900
H       -6.76506100       2.57500200      -0.09464200
H       -7.87432700      -0.86944400       2.25155100
H       -8.44555500       1.32348200       1.23641900
C       -4.20582700      -2.92818800      -1.51952900
C       -2.96545000      -2.53459600      -1.71063400
H       -4.43508700      -3.79461200      -0.89972800
H       -5.04051800      -2.41665900      -1.99763100
C       -1.75561200      -2.06943700      -1.81260700
H       -1.10825800      -2.39280800      -2.62855300
Cl      -1.15005900       0.84014100      -2.27047800
Cl      -0.79802100      -2.21606400       1.11924300
O       -0.27236600       0.46372000       0.60108400
O        0.74278500      -1.07255700      -1.28519200
C        1.84506000       1.07310000      -0.09279700
C        2.27965800      -0.29992000       0.25669900
C        2.15255600      -2.65630600      -0.27883700
C        0.08646200       2.72827000       0.07026300
C        0.96448900       3.68500500      -0.38346000
C        2.74883300       2.02524100      -0.61642800
C        2.28690000       3.37632900      -0.76583700
C        3.28365200      -0.53266100       1.22583300
C        3.74234800      -1.88134900       1.40396100
C        3.16644400      -2.90101400       0.61702000
C        4.07400600       1.69143100      -1.01173200
C        3.17139200       4.35662300      -1.28316900
C        3.83292100       0.50284100       2.03176000
C        4.75363400      -2.14838600       2.36153900
H        3.51753200      -3.91919600       0.73332900
C        1.50931200      -3.69424100      -1.16396900
N        0.56917600       1.43090000       0.16894900
N        1.73523500      -1.33934400      -0.41075100
C       -1.32660600       2.99654900       0.52472800
H        0.61588400       4.70720800      -0.46753300
C        4.45378700       4.00729100      -1.64827600
C        4.90272700       2.66697000      -1.51817200
H        4.42311200       0.66924000      -0.92457400
H        2.81717600       5.37751000      -1.38981500
H        5.12804600       4.75907500      -2.04761600
H        5.91050900       2.40814700      -1.82796900
C        5.27788800      -1.12303600       3.11888000
C        4.80849500       0.20640900       2.95695000
H        3.47620400       1.51996700       1.92261700
H        5.09740700      -3.17048300       2.48909500
H        6.05025900      -1.33077400       3.85338400
H        5.22006900       0.99835000       3.57504800
H       -1.93863400       2.16826000       0.16812500
C       -1.38802900       3.00899300       2.06949900
C       -1.89693200       4.29587300      -0.05814400
H       -2.42858200       3.14801900       2.38315600
H       -1.01992400       2.06888300       2.49023600
H       -0.79097100       3.83808300       2.46736000
H       -2.95058900       4.37262100       0.22905500
H       -1.37795100       5.17751500       0.33619800
H       -1.83057700       4.30466400      -1.15133200
C        1.67133900      -5.11726100      -0.61386200
H        0.44190800      -3.46687900      -1.20171500
C        2.08014900      -3.58759400      -2.59673500
H        1.29848900      -5.19207100       0.41327500
H        1.09727200      -5.80240000      -1.24559100
H        2.71873600      -5.44050200      -0.63614800
H        3.15056900      -3.82492800      -2.59491200
H        1.56482400      -4.30826900      -3.24094000
H        1.93720300      -2.58452100      -3.00878200
