75
Properties=species:S:1:pos:R:3 pbc="F F F"
Si      -0.82227500      -1.13743900      -0.47798900
O       -2.53481900      -0.92634100       0.33161300
C       -3.67590300      -1.17244700      -0.14071500
C       -4.87666200      -0.68376100       0.48862100
H       -3.76576500      -1.80621800      -1.02870300
C       -4.82986300       0.14596100       1.63070600
C       -6.11710700      -1.04036300      -0.08003600
C       -6.01275200       0.61700200       2.18368800
H       -3.86858000       0.40592400       2.06064800
C       -7.29837400      -0.56700400       0.48324100
H       -6.13801500      -1.67803200      -0.95968300
C       -7.24515700       0.26220800       1.61069900
H       -5.98688100       1.25812500       3.05972700
H       -8.25636900      -0.83698500       0.04970800
H       -8.16734700       0.63462900       2.04822400
C       -3.71886800       0.93835500      -2.36454000
C       -2.47413600       0.56694100      -2.16179100
H       -4.37741100       0.36378600      -3.01480800
H       -4.12404700       1.83958900      -1.90795500
C       -1.27997100       0.13163300      -1.88676300
H       -0.44833700       0.45231800      -2.51586500
Cl      -0.35967000      -2.51400500       1.23432200
Cl      -1.42504400      -2.89550100      -1.77142000
O        0.92181300      -1.16108100      -1.17663200
O       -0.27101400       0.21065300       0.75887200
C        2.33158700      -0.02279600       0.25430300
C        1.60434400       1.21127800      -0.12796200
C       -0.45727500       2.45893500       0.07432700
C        2.66528500      -2.37998200      -0.17600400
C        3.73648400      -2.36984400       0.68746100
C        3.39987100       0.00447300       1.17873200
C        4.12363500      -1.21552800       1.40031200
C        2.24703600       2.29189300      -0.77112800
C        1.49094500       3.49602600      -0.97183600
C        0.15733700       3.54094300      -0.51211900
C        3.76228600       1.17386800       1.90336200
C        5.20131300      -1.22300900       2.32212000
C        3.58934300       2.22236600      -1.23580100
C        2.10695500       4.60013700      -1.61370300
H       -0.41122500       4.45499900      -0.63434300
C       -1.85827200       2.45652200       0.63225000
N        1.98178700      -1.18344900      -0.34112900
N        0.30221200       1.30621600       0.21700900
C        2.22576200      -3.56524800      -0.99655700
H        4.29015800      -3.28961400       0.83324700
C        5.53774000      -0.07250000       3.00256300
C        4.80990200       1.12841000       2.79555900
H        3.20713200       2.09342200       1.76053000
H        5.74630400      -2.14829700       2.48342100
H        6.36126100      -0.08183800       3.71041600
H        5.07971500       2.02016000       3.35291500
C        3.41311100       4.50877300      -2.04516000
C        4.15373900       3.31215300      -1.85992500
H        4.15949000       1.30979200      -1.10679300
H        1.53128200       5.50920100      -1.76002400
H        3.88187500       5.35518900      -2.53815000
H        5.17622900       3.25485500      -2.22014900
H        1.13413800      -3.56560300      -1.00503100
C        2.71580400      -3.39921200      -2.45383800
C        2.70428700      -4.89855900      -0.40811100
H        2.34680600      -4.24045700      -3.05044000
H        2.34342200      -2.47005100      -2.89435000
H        3.81187900      -3.40047300      -2.48901500
H        2.26670700      -5.71377700      -0.99288800
H        3.79522200      -4.99490200      -0.46443500
H        2.39182300      -5.01080400       0.63565800
C       -2.73234700       3.56346400       0.03001000
H       -2.30188100       1.49364000       0.37895200
C       -1.80700700       2.56678400       2.17357700
H       -2.72923700       3.52353100      -1.06429300
H       -3.75950300       3.42863600       0.38331600
H       -2.39557900       4.55780500       0.34582400
H       -1.35031900       3.51736400       2.47274400
H       -2.82808000       2.53597000       2.56924000
H       -1.23714600       1.74144300       2.60959300
