75
Properties=species:S:1:pos:R:3 pbc="F F F"
Si      -0.27406800      -1.93248200       0.61181900
O       -1.68192300      -0.92711200      -0.28656000
C       -2.78089900      -1.35982500      -0.72113200
C       -3.81888700      -0.48554400      -1.20798100
H       -2.94392000      -2.43896300      -0.78345900
C       -3.63432500       0.90986200      -1.31568400
C       -5.04382000      -1.06862300      -1.59532700
C       -4.66824100       1.70596300      -1.78961700
H       -2.68152000       1.34459300      -1.03922100
C       -6.07803800      -0.26345100      -2.06261500
H       -5.17223000      -2.14470600      -1.51479600
C       -5.89083600       1.12153400      -2.15716300
H       -4.53084800       2.77941000      -1.87975600
H       -7.02495200      -0.70666600      -2.35478300
H       -6.69748500       1.74949900      -2.52516900
C       -4.09720600      -2.26829900       1.89668100
C       -2.79463200      -2.42606300       1.98697100
H       -4.58794000      -1.38348700       2.29969800
H       -4.72857500      -3.02808200       1.43769100
C       -1.49738600      -2.52514500       2.00064600
H       -1.01133600      -2.99592500       2.85588300
Cl       1.52152700      -2.80595400       1.62264200
Cl      -0.62711300      -3.72050600      -0.71710300
O        0.71086000      -1.17680600      -0.80550200
O        0.08111800      -0.31908800       1.60064400
C        2.03485200       0.54743400      -0.01602500
C        0.79254200       1.33197200       0.15155200
C       -1.24947300       1.61253800       1.40912800
C        3.04664600      -1.44308900      -0.94137400
C        4.28874500      -0.92139600      -0.66235000
C        3.29670600       1.08344800       0.32691200
C        4.46207500       0.31401500      -0.00416000
C        0.58860300       2.55284900      -0.53436800
C       -0.57135000       3.32514200      -0.19525500
C       -1.44087700       2.82940700       0.79967300
C        3.44726000       2.32758400       1.00057400
C        5.74379300       0.82049100       0.33004700
C        1.46869200       3.02296200      -1.54710800
C       -0.80830500       4.55180300      -0.86467400
H       -2.30748200       3.41554300       1.08096800
C       -2.13133200       1.04297600       2.48829600
N        1.94695100      -0.68264300      -0.56518400
N       -0.12600100       0.88464400       1.03283600
C        2.80251700      -2.73024500      -1.68498500
H        5.16298300      -1.49440100      -0.94679100
C        5.86091700       2.03266100       0.97565200
C        4.70652300       2.78494200       1.31724900
H        2.57163000       2.90448700       1.27397500
H        6.62185200       0.23520200       0.07394900
H        6.84319500       2.41679200       1.23427500
H        4.81922000       3.72939100       1.84058900
C        1.20563900       4.21664700      -2.18225200
C        0.06625400       4.98853700      -1.83721300
H       -1.68717400       5.13275500      -0.60071300
H        2.33730800       2.43677600      -1.82406300
H        1.87524600       4.56944500      -2.96054100
H       -0.11781900       5.92753600      -2.35059100
C        2.45034600      -2.41278300      -3.15681300
C        3.98928900      -3.69796700      -1.59757900
C       -1.47306800       1.27483100       3.86785800
C       -3.55648200       1.61072500       2.45422200
H        2.21718600      -3.34813100      -3.67709100
H        1.58067700      -1.75214200      -3.22320200
H        3.30184800      -1.93680200      -3.65786000
H        3.70243100      -4.64276400      -2.06991100
H        4.86794500      -3.31265800      -2.12847900
H        4.26268200      -3.89712300      -0.55582900
H       -0.47311200       0.83303000       3.90674800
H       -1.40032600       2.34876800       4.07694200
H       -2.09198400       0.80842500       4.64193900
H       -4.02067800       1.47001300       1.47248000
H       -4.15770900       1.08605600       3.20344100
H       -3.57388300       2.67821000       2.70343100
H        1.93746800      -3.21114600      -1.22837500
H       -2.18533000      -0.03369300       2.32605000
