81
Properties=species:S:1:pos:R:3 pbc="F F F"
Si       0.20562700       1.83037800       0.69829300
O        1.64907200       0.93605600      -0.35251600
C        2.77208300       1.41981200      -0.62361700
C        3.80917200       0.65595800      -1.26599600
H        2.98782500       2.45921800      -0.35189200
C        3.60207400      -0.67490800      -1.69471000
C        5.06758500       1.27079200      -1.43824200
C        4.64700400      -1.37561200      -2.27863600
H        2.62799200      -1.13214600      -1.56323200
C        6.11209300       0.55842500      -2.02086500
H        5.21114500       2.29573600      -1.10629400
C        5.90103100      -0.76090600      -2.43853100
H        4.49820700      -2.39766200      -2.61398000
H        7.08433100       1.02299200      -2.15168900
H        6.71572600      -1.31660000      -2.89451900
C        3.37353100       4.05549800       1.99914000
C        2.36207600       3.22406000       2.07757100
H        4.38374900       3.69681000       1.80189900
H        3.23746800       5.12822800       2.13096200
C        1.36603900       2.38426800       2.13199700
H        1.11753500       1.93856700       3.09644000
Cl      -1.62006400       2.43440000       1.82382100
Cl       0.47368300       3.66682100      -0.54087500
O       -0.79116800       1.12765500      -0.74468600
O        0.14558100       0.08847100       1.60180600
C       -1.93291500      -0.67227100       0.08436800
C       -0.64908800      -1.40953600       0.06122400
C        1.40926000      -1.89795300       1.22660900
C       -3.17649800       1.14620600      -0.91256500
C       -4.32536200       0.56556400      -0.41369800
C       -3.09356400      -1.27874600       0.59708000
C       -4.33302800      -0.59397700       0.38851500
C       -0.48518600      -2.49716800      -0.82235600
C        0.70570800      -3.27693400      -0.68485200
C        1.58166800      -2.97051000       0.37867300
C       -3.07246200      -2.50194700       1.32226200
C       -5.52380500      -1.14218500       0.92786500
C       -1.42543700      -2.82296200      -1.83836200
C        0.93769900      -4.35456900      -1.57462100
H        2.42812000      -3.62443400       0.53548000
C        2.31093000      -1.65085000       2.44320400
N       -1.98495200       0.53517700      -0.51447900
N        0.30882500      -1.07437300       0.94817000
C       -3.21707200       2.32688700      -1.89974500
H       -5.27933000       1.01181100      -0.65820400
C       -5.47743500      -2.32335800       1.63810500
C       -4.24712800      -3.00527300       1.83464100
H       -2.13281300      -3.01752800       1.48874200
H       -6.46304600      -0.62078900       0.76899900
H       -6.38956800      -2.74159100       2.05327900
H       -4.23425300      -3.93093100       2.40173500
C       -1.16941800      -3.87677800      -2.68844900
C        0.01613000      -4.64559900      -2.55909400
H        1.84412600      -4.94216000      -1.46268300
H       -2.32954600      -2.23579700      -1.95427400
H       -1.88124100      -4.11989600      -3.47129000
H        0.19387200      -5.47082500      -3.24219900
C       -2.12440500       2.22362000      -2.99355800
C       -4.58339600       2.31655600      -2.63518300
C       -3.10592900       3.67185600      -1.14928600
C        3.24933000      -0.44961400       2.20975000
C        1.46217500      -1.44904900       3.72437700
C        3.20827800      -2.88524600       2.69212900
H       -2.36406200       2.95323100      -3.77447500
H       -1.13226700       2.44669300      -2.60607400
H       -2.11921700       1.22605100      -3.44929800
H       -3.18904200       4.48169000      -1.88396700
H       -3.92119400       3.77101800      -0.42410000
H       -2.15484900       3.76467900      -0.62918100
H       -4.54971400       3.09189900      -3.40627000
H       -4.77646800       1.35171100      -3.11742900
H       -5.41651100       2.55952800      -1.96829600
H        2.69639200       0.47462600       2.06424000
H        3.88766800      -0.33366700       3.09303200
H        3.89068700      -0.63157900       1.34098200
H        0.86103300      -0.54148200       3.68648400
H        0.80199900      -2.30943100       3.88538100
H        2.14818900      -1.37984500       4.57538100
H        3.92506500      -3.04166800       1.87833900
H        3.77944000      -2.70003200       3.60664700
H        2.61683500      -3.79687000       2.83158900
