81
Properties=species:S:1:pos:R:3 pbc="F F F"
Si      -0.83542900      -0.88552500      -0.83632700
O       -2.76430200      -0.66687600      -0.52004400
C       -3.36127600      -0.71691900       0.58050800
C       -4.77887300      -0.50269000       0.70023400
H       -2.79210100      -0.92535600       1.49396900
C       -5.58583200      -0.22420500      -0.42628400
C       -5.35047900      -0.55633900       1.98984000
C       -6.94506700      -0.00375900      -0.25437600
H       -5.13005200      -0.18432100      -1.41030900
C       -6.71440600      -0.33289200       2.15227100
H       -4.71786500      -0.76983200       2.84759500
C       -7.50813700      -0.05737100       1.03188600
H       -7.57477500       0.21111000      -1.11234000
H       -7.16080500      -0.37161500       3.14104800
H       -8.57309000       0.11738600       1.15822500
C       -1.83575900      -4.27944600       1.14663700
C       -1.22043100      -3.13962700       0.95538000
H       -2.80906200      -4.32361800       1.63354700
H       -1.39153400      -5.21727300       0.81533700
C       -0.61905300      -2.00361800       0.73190100
H        0.03589200      -1.62422600       1.51750900
Cl      -1.12103800       0.65726400      -2.44676900
Cl      -1.38016300      -2.50657200      -2.25953000
O       -0.52515400       0.59358800       0.42540300
O        0.98351300      -0.91357700      -1.32862700
C        1.60064700       1.30055100      -0.01806700
C        2.05549700      -0.02073000       0.47903100
C        2.52807200      -2.31211900      -0.14335500
C       -0.19838400       2.90263300      -0.13759700
C        0.72793400       3.82433900      -0.58896200
C        2.54988600       2.22135000      -0.49729000
C        2.08228600       3.53395500      -0.82269900
C        2.75342200      -0.13468000       1.69375800
C        3.29755600      -1.41949900       2.01766500
C        3.20089100      -2.44524200       1.05609800
C        3.92380900       1.89896300      -0.68449000
C        2.99689700       4.49510300      -1.32559100
C        2.89858700       0.94728000       2.60548100
C        3.96402900      -1.59360300       3.25739900
H        3.69162400      -3.38455500       1.27201000
C        2.54754700      -3.42469500      -1.20800800
N        0.28708600       1.61474100       0.08349400
N        1.87248100      -1.09436700      -0.32066700
C       -1.61877400       3.40726900       0.19378300
H        0.38909600       4.83760900      -0.76224200
C        4.32126700       4.15749800      -1.49999600
C        4.78391400       2.85278900      -1.17950000
H        4.28693300       0.90359900      -0.45509400
H        2.63385600       5.48934600      -1.56845500
H        5.02205500       4.89053600      -1.88827500
H        5.82974100       2.60496200      -1.33287700
C        3.55027200       0.74278800       3.80066000
C        4.08441800      -0.53214300       4.12900500
H        4.37719400      -2.56791800       3.50079200
H        2.48061100       1.91811200       2.36286200
H        3.65452500       1.56287900       4.50434400
H        4.59453900      -0.66635900       5.07822000
C       -2.67534400       2.36387700       0.58252700
C       -1.46072000       4.38910300       1.38552300
C       -2.18402700       4.16304800      -1.03604700
C        1.43767800      -4.45613900      -0.90405100
C        2.41074700      -2.90768300      -2.66057500
C        3.91524600      -4.15703800      -1.12551600
H       -3.59554200       2.90900300       0.82086900
H       -2.87631300       1.70160600      -0.25635500
H       -2.38453300       1.77863600       1.45706700
H       -3.18601500       4.52639800      -0.78338700
H       -1.57884700       5.02834600      -1.32115500
H       -2.26061700       3.48449600      -1.89146000
H       -2.44377600       4.81176800       1.62087500
H       -1.08586000       3.86271500       2.27092600
H       -0.77627500       5.20999100       1.14875900
H        0.44852300      -4.00630900      -0.98083100
H        1.51534000      -5.26964900      -1.63469800
H        1.56639200      -4.87458100       0.10065200
H        1.39405100      -2.59811300      -2.89352800
H        3.09333200      -2.07108500      -2.84848800
H        2.68432800      -3.72979200      -3.33061700
H        4.03844800      -4.71549000      -0.19298000
H        3.95198400      -4.88299400      -1.94345500
H        4.75134100      -3.45817500      -1.23915200
