81
Properties=species:S:1:pos:R:3 pbc="F F F"
Si      -0.92647300      -0.93472100      -0.41463500
O       -2.67586300      -0.49462700       0.25494300
C       -3.73031400      -0.51221700      -0.42985500
C       -5.02062700      -0.24001500       0.13782200
H       -3.66674900      -0.71958100      -1.50249000
C       -5.19128200       0.03416800       1.51428500
C       -6.13341800      -0.24263400      -0.73165000
C       -6.46176800       0.30181900       2.00366900
H       -4.32730300       0.02735000       2.17051600
C       -7.40292600       0.02871900      -0.23152900
H       -5.98637200      -0.45560200      -1.78723200
C       -7.56471700       0.29992100       1.13294200
H       -6.60612300       0.51200600       3.05900600
H       -8.26295500       0.02975800      -0.89384300
H       -8.55608900       0.51062600       1.52458000
C       -3.64579400      -3.86845000      -0.89445300
C       -2.59150300      -3.15828500      -1.22124200
H       -4.64519000      -3.58960700      -1.22766400
H       -3.55203400      -4.76951600      -0.28893800
C       -1.55916500      -2.40875800      -1.48801800
H       -0.98875800      -2.58931100      -2.39950600
Cl      -1.22091700       0.46267900      -2.22910200
Cl      -0.65740500      -2.06459900       1.49898400
O       -0.37664400       0.57542600       0.63568700
O        0.82575500      -1.26302100      -1.02712000
C        1.65105100       1.16105200      -0.25761400
C        2.20921100      -0.07004200       0.35106100
C        2.57452100      -2.44570900       0.08441900
C       -0.08522700       2.83188600      -0.10048500
C        0.68963700       3.65032000      -0.89392900
C        2.46526900       1.98729400      -1.05638000
C        1.92845600       3.25588300      -1.44430900
C        3.15590100       0.02717700       1.39053000
C        3.78790900      -1.18528200       1.81307600
C        3.50347700      -2.36957300       1.10090000
C        3.75724200       1.59825100      -1.50514600
C        2.69075900       4.09854400      -2.29069300
C        3.47976000       1.25341800       2.03441000
C        4.71943800      -1.14469100       2.88033200
H        4.06049300      -3.25908100       1.36128900
C        2.38874600      -3.69681400      -0.78470200
N        0.39790200       1.53135200       0.07208100
N        1.87348400      -1.26387000      -0.17523100
C       -1.28353500       3.34281900       0.71016300
H        0.34693600       4.65673800      -1.09099800
C        3.93651300       3.69419600      -2.72458100
C        4.47108100       2.44046600      -2.32851000
H        4.16724600       0.63653600      -1.21699500
H        2.28171400       5.06135400      -2.58257100
H        4.51956200       4.34019200      -3.37421600
H        5.45215000       2.14139500      -2.68437700
C        4.38716300       1.25698100       3.07048600
C        5.00910800       0.05443000       3.49705700
H        5.19705800      -2.06716800       3.19687300
H        3.00327800       2.17564500       1.72114400
H        4.62730700       2.18975100       3.57139800
H        5.72084700       0.08435800       4.31670800
C       -0.94506800       3.15832100       2.21343400
C       -1.48308500       4.85239500       0.45588500
C       -2.61512000       2.63383400       0.39111100
C        1.05601600      -4.41320900      -0.48749300
C        2.49123300      -3.32863100      -2.28766800
C        3.52368300      -4.70674300      -0.49504900
H       -1.77306400       3.56608700       2.80401700
H       -0.82162200       2.10326800       2.46886200
H       -0.03099300       3.70422600       2.47486500
H       -3.42808800       3.21480600       0.84040500
H       -2.78263400       2.56541200      -0.68781200
H       -2.62939300       1.63683000       0.81799700
H       -2.30611900       5.19060000       1.09218500
H       -0.59120000       5.43355000       0.71407400
H       -1.75343600       5.05261800      -0.58705500
H        0.19489100      -3.78323000      -0.69253700
H        1.00069800      -5.30509000      -1.12269300
H        1.01712100      -4.72552400       0.56124200
H        1.66724800      -2.69684100      -2.61848700
H        3.43956100      -2.81848200      -2.49462500
H        2.46978700      -4.26036600      -2.86307100
H        3.46877600      -5.10166000       0.52509600
H        3.40099200      -5.54726900      -1.18459700
H        4.51313600      -4.26566300      -0.65934700
