61
Properties=species:S:1:pos:R:3 pbc="F F F"
Si      -0.51589700      -2.01354300       0.39822800
O       -1.77750500      -0.66864000      -0.24170400
C       -2.94219600      -0.85914900      -0.67948700
C       -3.86028000       0.22109900      -0.94524500
H       -3.26170500      -1.87570200      -0.92227800
C       -3.49365900       1.57513500      -0.79039100
C       -5.15572000      -0.11367000      -1.39284900
C       -4.41712400       2.57424700      -1.06667100
H       -2.48869500       1.82120000      -0.46954800
C       -6.07776800       0.89285000      -1.66358100
H       -5.42520600      -1.15963400      -1.51425800
C       -5.70923400       2.23403800      -1.49833100
H       -4.14021700       3.61826700      -0.95376800
H       -7.07759200       0.64039600      -2.00293400
H       -6.42862700       3.01972000      -1.71194800
C       -4.27580000      -2.00356100       1.82239000
C       -2.99743700      -2.30981000       1.85762900
H       -5.00435300      -2.66141700       1.35006600
H       -4.64762600      -1.09013100       2.28523900
C       -1.72113500      -2.55136700       1.81439000
H       -1.25031000      -3.10898200       2.62445400
Cl       1.18465600      -3.25092500       1.14143800
Cl      -1.21129500      -3.50728000      -1.10229200
O        0.50271900      -1.19532400      -0.98372700
O        0.17057900      -0.59571100       1.57278200
C        2.13066300       0.19556600      -0.09608000
C        1.04385200       1.12165300       0.29222300
C       -0.82085900       1.52088200       1.75855900
C        2.75218700      -1.76546800      -1.34920700
C        4.08802700      -1.48380000      -1.13823300
C        3.48839200       0.48491400       0.18654500
C        4.49520800      -0.38791700      -0.35294500
C        0.98354200       2.45086200      -0.19842300
C       -0.00439700       3.33556100       0.35472400
C       -0.86610800       2.84059400       1.35422900
C        3.88201400       1.58417100       0.99525700
C        5.86191500      -0.11893000      -0.08921600
C        1.84451300       2.92661000      -1.22126000
C       -0.08677200       4.66981900      -0.11622700
H       -1.60517400       3.48957400       1.81010200
C       -1.68805800       0.98389400       2.73493500
N        1.80062400      -0.91642500      -0.78061500
N        0.13614100       0.67988600       1.18388100
C        2.30937300      -2.84689100      -2.14102600
H        4.82582600      -2.13959000      -1.58612900
C        6.21431400       0.96284700       0.68969600
C        5.21934800       1.81156400       1.23874900
H        3.13127100       2.23336600       1.42981900
H        6.61610200      -0.78077100      -0.50349000
H        7.26120800       1.16536200       0.89432200
H        5.51546900       2.64742300       1.86480700
C        1.73332600       4.22849700      -1.66204000
C        0.76961800       5.10650600      -1.10545500
H       -0.83414900       5.33208100       0.30992700
H        2.57873800       2.26355500      -1.66289200
H        2.38872100       4.58420800      -2.45087300
H        0.70390000       6.12758600      -1.46848700
C        2.00478700      -3.77427900      -2.85496300
H        1.71241900      -4.60045400      -3.46657600
C       -2.45336600       0.60122600       3.58963700
H       -3.12527500       0.24004700       4.33809200
