61
Properties=species:S:1:pos:R:3 pbc="F F F"
Si      -1.04116100      -0.52825700      -0.89171400
O       -2.67341300       0.22218700      -0.23869300
C       -3.85400400      -0.17975100      -0.40182900
C       -4.94795000       0.32158100       0.39254700
H       -4.07083700      -0.90659800      -1.19084900
C       -4.73885800       1.20220400       1.47660800
C       -6.25246700      -0.10335200       0.06491400
C       -5.82602000       1.64951900       2.21532900
H       -3.72729400       1.50813500       1.72210500
C       -7.33740300       0.35422600       0.80728400
H       -6.39867600      -0.78707900      -0.76715300
C       -7.12355400       1.22828200       1.88026700
H       -5.67530500       2.32238800       3.05435200
H       -8.34396000       0.03248100       0.55829200
H       -7.96982100       1.58206200       2.46277800
C       -3.48709900      -2.88967200       1.16851300
C       -2.29370200      -2.44744000       0.84311600
H       -3.94294300      -3.72383000       0.63625400
H       -4.04403000      -2.45515200       1.99743200
C       -1.16646200      -1.92893600       0.45215200
H       -0.24958300      -2.27861300       0.92485700
Cl      -0.92394700       1.24021700      -2.26325000
Cl      -1.98129600      -1.74977000      -2.51453300
O       -0.20530700       0.48597200       0.54427500
O        0.70855100      -0.96938900      -1.49886100
C        2.00577900       0.87739100      -0.00505300
C        2.24047900      -0.57180000       0.19760000
C        1.85321000      -2.81419000      -0.59977800
C        0.48370900       2.71785200       0.28156600
C        1.48894600       3.60879000      -0.04148900
C        3.04820200       1.75486600      -0.39152900
C        2.77461700       3.16592500      -0.40980500
C        3.14753700      -1.04569100       1.17847300
C        3.41811400      -2.45708000       1.23069600
C        2.76923100      -3.30418600       0.31091300
C        4.33373200       1.29101200      -0.77664700
C        3.80071200       4.06792000      -0.78870300
C        3.77484100      -0.18430700       2.11706700
C        4.32566000      -2.95641500       2.19840100
H        2.96892700      -4.36965000       0.31359700
C        1.16571100      -3.62600900      -1.52731300
N        0.77423600       1.35394300       0.26043900
N        1.59665800      -1.43975400      -0.60745000
C       -0.81634700       3.12940600       0.65421200
H        1.26080600       4.66836300      -0.02126400
C        5.04245500       3.58863600      -1.14910300
C        5.30528900       2.19505300      -1.14915000
H        4.54475500       0.22821500      -0.78908100
H        3.58740300       5.13234600      -0.79518700
H        5.82609000       4.28000800      -1.44358300
H        6.28361700       1.83510400      -1.45213800
C        4.64471300      -0.70453200       3.05130300
C        4.92853600      -2.09335400       3.08900800
H        4.52901600      -4.02246600       2.22629100
H        3.56116900       0.87765200       2.10519900
H        5.11565400      -0.04252400       3.77118400
H        5.62113300      -2.47703900       3.83186700
C       -1.88810900       3.58410400       0.98287300
H       -2.84362400       3.97559200       1.25721900
C        0.61248400      -4.36718700      -2.30656500
H        0.10606800      -5.00809900      -2.99580400
