61
Properties=species:S:1:pos:R:3 pbc="F F F"
Si      -0.94660400      -0.97358400      -0.63239200
O       -2.59366000      -0.68085300       0.26695700
C       -3.74255700      -0.63384800      -0.24570000
C       -4.89908500      -0.22366600       0.50803700
H       -3.88332100      -0.95411600      -1.28250600
C       -4.80971700       0.14785000       1.86787200
C       -6.14404400      -0.20081800      -0.15481200
C       -5.95554100       0.54420900       2.54489500
H       -3.84614400       0.11582800       2.36565300
C       -7.28698700       0.19851300       0.53112200
H       -6.19640700      -0.49133000      -1.20077400
C       -7.19134500       0.57161000       1.87780300
H       -5.89855900       0.83016300       3.59088400
H       -8.24765700       0.22017800       0.02597200
H       -8.08362900       0.88277000       2.41409200
C       -3.43675700       1.93263400      -1.94861200
C       -2.31241400       1.25324500      -1.92130700
H       -4.27066600       1.61900200      -2.57519300
H       -3.56032600       2.83775700      -1.35603800
C       -1.23625300       0.52659000      -1.83643900
H       -0.41635600       0.73376600      -2.52620800
Cl      -0.60489700      -2.60505500       0.85646600
Cl      -1.77481300      -2.43143300      -2.12766000
O        0.80326200      -1.11105700      -1.37625200
O       -0.19682600       0.14035400       0.76988300
C        2.35862000      -0.35482700       0.16286300
C        1.79118800       1.00222100      -0.02406600
C       -0.07765200       2.46072500       0.39644300
C        2.40747700      -2.63886400      -0.60220000
C        3.48545100      -2.89825200       0.22185500
C        3.43313300      -0.59562600       1.05333600
C        4.00893400      -1.91312200       1.08220100
C        2.55899300       2.07629700      -0.53349300
C        1.96470400       3.38617600      -0.55238100
C        0.65616700       3.54178600      -0.05333300
C        3.94066200       0.40372200       1.92577500
C        5.08501300      -2.18179800       1.96529400
C        3.87248600       1.90017100      -1.04283400
C        2.71134200       4.47879600      -1.06149300
H        0.19435800       4.52224500      -0.02439700
C       -1.38616700       2.57258900       0.91731400
N        1.85336600      -1.35799400      -0.58152600
N        0.51677300       1.19888300       0.36518300
C        1.85749400      -3.59471900      -1.48412200
H        3.91804800      -3.89199100       0.20108800
C        5.56268100      -1.18855700       2.79395900
C        4.98327200       0.10583900       2.77657100
H        3.50068300       1.39390800       1.93079300
H        5.51527100      -3.17848500       1.98007300
H        6.38416100      -1.39684500       3.47265300
H        5.36214300       0.87054600       3.44744400
C        4.56648400       2.98344900      -1.53746800
C        3.98818100       4.27849100      -1.54220100
H        2.25870200       5.46550300      -1.07026400
H        4.32139900       0.91390800      -1.05385900
H        5.56726100       2.84289000      -1.93369200
H        4.55690700       5.11574000      -1.93505800
C        1.44772300      -4.45054500      -2.23400000
H        1.06018800      -5.19891400      -2.89120800
C       -2.49231300       2.74946700       1.37381800
H       -3.47674800       2.88575600       1.76585500
