61
Properties=species:S:1:pos:R:3 pbc="F F F"
Si      -0.94187900      -0.98961800      -0.92407200
O       -2.74202100      -0.71321500      -0.32998100
C       -3.17028200      -0.57451000       0.84088300
C       -4.53689900      -0.22699100       1.11853900
H       -2.48710200      -0.72190000       1.68450300
C       -5.46426700       0.02264900       0.08043700
C       -4.93034300      -0.11328600       2.46979800
C       -6.76538200       0.38225700       0.40163200
H       -5.14064800      -0.06110600      -0.95158800
C       -6.23786100       0.24588000       2.78100700
H       -4.20568800      -0.30606500       3.25624800
C       -7.15136100       0.49331900       1.74826500
H       -7.48652100       0.57907200      -0.38577400
H       -6.54899900       0.33385800       3.81723600
H       -8.17227300       0.77531600       1.99087900
C       -3.25706100       2.00332600      -2.40858200
C       -2.17758700       1.27380200      -2.26412000
H       -3.41575000       2.89494000      -1.80367200
H       -4.02621500       1.73666800      -3.13256300
C       -1.11757800       0.53028400      -2.10156900
H       -0.23830200       0.75530200      -2.70843800
Cl      -0.71320500      -2.63326600       0.60935600
Cl      -1.64526900      -2.43607500      -2.45726300
O        0.87305400      -1.11347300      -1.48393800
O       -0.32933100       0.10965100       0.58777200
C        2.27644600      -0.34947700       0.19161300
C        1.70709800       1.00326500      -0.02545100
C       -0.20332500       2.43710800       0.27508000
C        2.41299100      -2.63003400      -0.57456800
C        3.42381500      -2.88143800       0.33268500
C        3.27846700      -0.58343600       1.16538400
C        3.86798000      -1.89352300       1.23303800
C        2.49890000       2.09445900      -0.45654800
C        1.89422100       3.39921400      -0.49620800
C        0.54958200       3.53380600      -0.09727300
C        3.70425600       0.41661900       2.07963400
C        4.87774800      -2.15282900       2.19413300
C        3.85036300       1.94171200      -0.86361900
C        2.66660500       4.50916800      -0.92178600
H        0.07660600       4.50930000      -0.08742400
C       -1.54711500       2.52689900       0.70340800
N        1.84788300      -1.35395400      -0.59812200
N        0.40437700       1.18194400       0.26780800
C        1.94469300      -3.58999000      -1.49813100
H        3.86597400      -3.87107800       0.34486600
C        5.27770800      -1.15823000       3.06119200
C        4.68277800       0.12802700       3.00629500
H        3.25353100       1.40134200       2.05410300
H        5.32024100      -3.14334800       2.23553300
H        6.04888500      -1.35904800       3.79860200
H        4.99915200       0.89412300       3.70727100
C        4.56949600       3.04151500      -1.27978600
C        3.97957800       4.33105900      -1.30389300
H        2.20513800       5.49151800      -0.94466400
H        4.30961600       0.96027000      -0.85559900
H        5.60001200       2.91858400      -1.59804100
H        4.56865800       5.18161800      -1.63294600
C        1.60858600      -4.45290600      -2.27601800
H        1.28407300      -5.20636900      -2.96100600
C       -2.68224300       2.68995700       1.08897100
H       -3.68948900       2.82478800       1.41860200
