61
Properties=species:S:1:pos:R:3 pbc="F F F"
Si      -1.02631500      -0.72874600      -1.08046700
O       -2.80578500      -0.22353300      -0.59180400
C       -3.22378500       0.22484200       0.50786900
C       -4.63022700       0.36740100       0.78965200
H       -2.51023700       0.54498700       1.26791800
C       -5.62108000       0.00626900      -0.14977400
C       -5.00063500       0.88750400       2.04821200
C       -6.96197600       0.16665700       0.17478200
H       -5.32138900      -0.39201100      -1.11377900
C       -6.34626700       1.04505200       2.36461600
H       -4.22826200       1.15630900       2.76426800
C       -7.32428900       0.68459700       1.42866200
H       -7.73130200      -0.10800700      -0.54051200
H       -6.63737800       1.44312300       3.33183900
H       -8.37540100       0.80640200       1.67546100
C       -2.39426500      -2.17891300       2.41470900
C       -1.69311500      -2.23127300       1.30420500
H       -1.94612700      -1.86065100       3.35530900
H       -3.44267500      -2.47455600       2.43109900
C       -1.05882400      -2.21024100       0.16800200
H       -0.56605000      -3.12032500      -0.17418300
Cl      -1.03413600       1.05562100      -2.43114100
Cl      -1.80947000      -2.02428400      -2.71481400
O       -0.34947800       0.37477200       0.39911600
O        0.78667700      -0.97803600      -1.61122700
C        1.84168800       0.94048200      -0.03206900
C        2.17209700      -0.48767000       0.18345900
C        2.04365700      -2.73434000      -0.67450000
C        0.16581300       2.65737200       0.13533400
C        1.11589700       3.62125100      -0.13932500
C        2.83512600       1.89371300      -0.36408200
C        2.45318700       3.27830700      -0.42042300
C        3.05097900      -0.89935900       1.21571800
C        3.44018200      -2.28242400       1.26684300
C        2.93516900      -3.16227300       0.28966600
C        4.17505700       1.52963100      -0.66031700
C        3.42574100       4.25517300      -0.75028300
C        3.54258400      -0.00304900       2.20127100
C        4.32362700      -2.71965500       2.28517800
H        3.23405300      -4.20433700       0.28526200
C        1.51104800      -3.58223100      -1.67000600
N        0.56329900       1.32008300       0.15566200
N        1.65810800      -1.39131900      -0.67345200
C       -1.18366900       2.97032100       0.41943000
H        0.80535400       4.65982700      -0.14898300
C        4.72198400       3.87267000      -1.02493900
C        5.09385200       2.50485500      -0.98504800
H        4.47075800       0.48714100      -0.64407000
H        3.12918200       5.29882500      -0.78824300
H        5.46534700       4.62103500      -1.28202100
H        6.11509400       2.22148600      -1.21980500
C        4.39437700      -0.46332000       3.18252900
C        4.79278500      -1.82374000       3.22275000
H        4.61623100      -3.76467100       2.31234600
H        3.24026500       1.03735600       2.18623200
H        4.76191700       0.22413100       3.93795300
H        5.46795400      -2.15964600       4.00380700
C       -2.30903800       3.33963800       0.66731400
H       -3.31034400       3.65157800       0.87323800
C        1.07744800      -4.34646100      -2.50112600
H        0.68082400      -5.00993900      -3.23936500
