61
Properties=species:S:1:pos:R:3 pbc="F F F"
Si      -0.58872000      -1.97535800       0.28609200
O       -1.79967400      -0.45275700      -0.30404700
C       -3.04177000      -0.53366700      -0.42725800
C       -3.86354200       0.59582700      -0.78105100
H       -3.53660300      -1.49655500      -0.25300300
C       -3.30566900       1.85616400      -1.09440400
C       -5.26329600       0.41657700      -0.79523200
C       -4.14270000       2.91829300      -1.40436600
H       -2.22815100       1.97644300      -1.09994300
C       -6.09602300       1.48868700      -1.10327900
H       -5.67992100      -0.55889700      -0.55851100
C       -5.53594700       2.73586400      -1.40536900
H       -3.72277600       3.88919500      -1.64985900
H       -7.17364000       1.35840900      -1.11164600
H       -6.18589400       3.57186700      -1.64865400
C       -3.99441700      -3.89581300       1.46390000
C       -2.89064200      -3.19671900       1.58042700
H       -4.95977200      -3.41228600       1.31619100
H       -3.98058000      -4.98423300       1.50844400
C       -1.79500700      -2.49678800       1.68815600
H       -1.48713600      -2.16770500       2.68126400
Cl       1.03681500      -3.34247100       0.92716700
Cl      -1.41248600      -3.22182900      -1.33596500
O        0.47651200      -1.10754100      -1.03675100
O        0.14125500      -0.64549800       1.52892700
C        2.14692000       0.17091800      -0.05296700
C        1.08871000       1.11422900       0.36962700
C       -0.85150700       1.46739700       1.74993500
C        2.70428700      -1.73959100      -1.41121100
C        4.04763000      -1.52597000      -1.17095800
C        3.51193500       0.38920100       0.25602800
C        4.48913300      -0.49346800      -0.32095400
C        1.07317500       2.46895900      -0.05268000
C        0.06168300       3.33599600       0.48659000
C       -0.86959600       2.80197800       1.39987900
C        3.94016400       1.42710400       1.12563400
C        5.86212800      -0.29650700      -0.02833700
C        1.98981000       2.98536600      -1.00505200
C        0.01593200       4.69266400       0.07988800
H       -1.63764800       3.43503500       1.82914800
C       -1.78983900       0.88273700       2.62890000
N        1.77994600      -0.88801600      -0.80236800
N        0.13820400       0.64763300       1.19992900
C        2.22475100      -2.75162200      -2.27087500
H        4.76388800      -2.18516300      -1.64785000
C        6.24873500       0.72597100       0.81209200
C        5.28254500       1.58543800       1.39496000
H        3.21110200       2.08423500       1.58477900
H        6.59341900      -0.96601100      -0.47049300
H        7.30024700       0.87324700       1.03893300
H        5.60472200       2.37433300       2.06742100
C        1.91381600       4.30922400      -1.38439600
C        0.92959400       5.16967600      -0.83683600
H       -0.74991200       5.33893100       0.49792300
H        2.74143600       2.33862100      -1.44119100
H        2.61440100       4.69594300      -2.11786500
H        0.89304500       6.20843300      -1.15040200
C        1.88333000      -3.61680100      -3.04378800
H        1.56015000      -4.38913000      -3.70800900
C       -2.62791100       0.43634600       3.37825700
H       -3.36215300       0.02641100       4.03809300
