59
Properties=species:S:1:pos:R:3 pbc="F F F"
Si      -1.07667500      -0.60550100      -0.69773200
O       -2.63069700       0.09310200       0.12137300
C       -3.66916800      -0.57745600       0.37586200
C       -4.88005500       0.02812600       0.84643100
H       -3.64443000      -1.66451600       0.25060300
C       -4.99650800       1.42575000       1.03214900
C       -5.97430800      -0.82312500       1.12091500
C       -6.19713700       1.95288700       1.48585900
H       -4.14617100       2.06555400       0.82138800
C       -7.17249500      -0.28338500       1.57546200
H       -5.86866200      -1.89441400       0.97157100
C       -7.28201500       1.10159400       1.75626100
H       -6.29984200       3.02375600       1.63262900
H       -8.01800700      -0.93012200       1.78790700
H       -8.21851100       1.52385100       2.11036300
C       -4.39191100      -1.38852400      -2.78627400
C       -3.15978200      -1.61104700      -2.39232000
H       -4.60016400      -0.79529700      -3.67604900
H       -5.24365500      -1.80392100      -2.24894300
C       -1.94454600      -1.77362200      -1.95002100
H       -1.35855600      -2.63303600      -2.27502200
Cl      -1.12633300       1.18873600      -2.06027700
Cl      -0.95355300      -2.27887000       0.85721900
O       -0.16864300       0.39692500       0.67067300
O        0.65317700      -1.01008700      -1.42538700
C        1.98746300       0.89077400      -0.02746500
C        2.30285400      -0.54626500       0.14272100
C        1.94366100      -2.78421000      -0.62317300
C        0.40665600       2.64548400       0.36079000
C        1.32797700       3.60133600      -0.00110500
C        2.95475900       1.82958300      -0.47167200
C        2.61108100       3.22661300      -0.45287500
C        3.30476000      -0.99355000       1.04484100
C        3.64270200      -2.39214400       1.05422000
C        2.95102100      -3.26048800       0.18359300
N        0.75377100       1.30082200       0.31538100
N        1.63280500      -1.42951000      -0.61674300
C        1.20248300      -3.61899700      -1.50665200
C       -0.89908300       2.97648700       0.82303900
N        0.64962900      -4.34794700      -2.22128000
N       -1.92817400       3.33403400       1.22313400
H        3.18947800      -4.31772500       0.15377800
H        1.04441000       4.64642500       0.04918000
C        3.56016700       4.18386800      -0.88351500
H        3.29403900       5.23593200      -0.86196500
C        4.23022800       1.43554600      -0.94854300
H        4.49363200       0.38550000      -0.99352100
C        3.96015700      -0.11832100       1.94659100
C        4.64435500      -2.86270700       1.93627800
C        5.27597000      -1.98351900       2.79264100
H        6.04043900      -2.34440900       3.47345500
C        4.92472500      -0.61161800       2.80181800
H        5.41682800       0.06170400       3.49645200
C        4.79879700       3.77094300      -1.33185500
H        5.52592300       4.50409200      -1.66663600
C        5.12849900       2.39399100      -1.37137000
H        6.10021400       2.08772400      -1.74551500
H        3.69579900       0.93183700       1.97546800
H        4.89399500      -3.91898100       1.93260500
