59
Properties=species:S:1:pos:R:3 pbc="F F F"
Si      -1.05613700      -0.72105300      -0.64016100
O       -2.60875600      -0.19410200       0.26695100
C       -3.68151400       0.23047200      -0.24885000
C       -4.87837100       0.41126300       0.52191100
H       -3.69290000       0.51541500      -1.30376000
C       -4.94315000       0.08044700       1.89473900
C       -6.00731700       0.94605000      -0.13686400
C       -6.12717300       0.28368400       2.58932200
H       -4.06689200      -0.32904700       2.38658500
C       -7.18854700       1.14785500       0.56868500
H       -5.94146500       1.19307200      -1.19314800
C       -7.24694000       0.81595300       1.92844200
H       -6.19008500       0.03262600       3.64372300
H       -8.06033600       1.55881000       0.06921100
H       -8.17008300       0.97188500       2.47990100
C       -4.49386400      -2.26775800      -1.94319200
C       -3.19065500      -2.09724100      -1.96795500
H       -5.15816200      -1.63801500      -2.53410600
H       -4.94811100      -3.06061000      -1.34985800
C       -1.91008300      -1.87119200      -1.91846100
H       -1.23971800      -2.36925700      -2.61917200
Cl      -1.16105400       1.08018900      -2.05288800
Cl      -0.83396000      -2.36954400       0.88905800
O       -0.16819300       0.33083900       0.69870700
O        0.67276300      -1.03068300      -1.40956700
C        1.94936000       0.92932800      -0.03530900
C        2.33779900      -0.49298100       0.11863500
C        2.04931600      -2.74772600      -0.63639200
C        0.28120700       2.60030900       0.37548900
C        1.14685100       3.60554800       0.01276100
C        2.85966300       1.92207900      -0.48522500
C        2.44431500       3.29957500      -0.45031800
C        3.38445000      -0.89879400       0.99007600
C        3.77740300      -2.28330800       0.99127900
C        3.09472600      -3.18221100       0.14480800
N        0.70171300       1.27657400       0.32621900
N        1.68655000      -1.40623900      -0.62319600
C        1.31959300      -3.60840400      -1.50516800
C       -1.04741500       2.84476800       0.82778900
N        0.78106300      -4.35351100      -2.21391600
N       -2.11144300       3.11184900       1.20730100
H        3.37217700      -4.22984100       0.11290000
H        0.80890200       4.63415700       0.06665400
C        3.33743900       4.30812200      -0.88314300
H        3.01633400       5.34435900      -0.84941300
C        4.14691300       1.59995500      -0.98241700
H        4.46306800       0.56573200      -1.04082500
C        4.03303200       0.00261000       1.87108100
C        4.82480500      -2.71172900       1.84130200
C        5.44863300      -1.80668200       2.67596100
H        6.24882400      -2.13542300       3.33156000
C        5.04324700      -0.45007000       2.69535000
H        5.52989700       0.24402500       3.37317600
C        4.59051300       3.96466700      -1.34944000
H        5.27442800       4.73772100      -1.68536900
C        4.98994700       2.60708400      -1.40637800
H        5.97161400       2.35414600      -1.79421300
H        3.72994300       1.04171500       1.90888300
H        5.11693400      -3.75688800       1.82994800
