59
Properties=species:S:1:pos:R:3 pbc="F F F"
Si      -1.07579400      -0.70412700      -1.11231100
O       -2.82875300      -0.20866100      -0.59246900
C       -3.25320300       0.24754700       0.50410700
C       -4.65665900       0.36184000       0.79096500
H       -2.54313100       0.58806800       1.25858000
C       -5.64605100      -0.06108200      -0.12554400
C       -5.02875800       0.91888100       2.03382100
C       -6.98683900       0.07423600       0.20742500
H       -5.34471400      -0.48650900      -1.07729600
C       -6.37473900       1.05106700       2.35783900
H       -4.25659200       1.24193900       2.72682500
C       -7.35055800       0.62860900       1.44581600
H       -7.75561800      -0.24746100      -0.48846700
H       -6.66824100       1.47945900       3.31116500
H       -8.40227600       0.73119400       1.69874100
C       -2.23920800      -2.12223500       2.45776000
C       -1.62081500      -2.19431000       1.30175800
H       -3.29576600      -2.37282600       2.54496900
H       -1.71333200      -1.83108900       3.36625900
C       -1.06691100      -2.19156100       0.12321100
H       -0.64401300      -3.12145100      -0.25757600
Cl      -1.06034700       1.11680800      -2.39750700
Cl      -1.82725900      -1.95733700      -2.75925200
O       -0.35507600       0.40246100       0.40959200
O        0.77464300      -0.93941800      -1.64389700
C        1.84785700       0.93914800      -0.01665200
C        2.15912400      -0.49726800       0.16910200
C        2.01251800      -2.70858600      -0.72997400
C        0.20381500       2.66504500       0.15471200
C        1.14641500       3.63491600      -0.09836200
C        2.85169700       1.89156100      -0.33071800
C        2.48532400       3.28208100      -0.37011500
C        3.02523200      -0.94944700       1.19889200
C        3.39360400      -2.33961000       1.22409900
C        2.88433000      -3.18966300       0.22022300
N        0.57399100       1.32348000       0.17461500
N        1.63811200      -1.36834300      -0.71358400
C        1.49339800      -3.53016800      -1.77058800
C       -1.15764400       2.96902300       0.43890500
N        1.12981200      -4.26594200      -2.59158600
N       -2.24711300       3.27780300       0.69580400
H        3.16691000      -4.23590600       0.18781200
H        0.84020400       4.67503000      -0.09900800
C        3.46660200       4.25422700      -0.67731800
H        3.18081000       5.30103400      -0.70098000
C        4.18730500       1.51885800      -0.62426200
H        4.47454500       0.47392000      -0.62234100
C        3.52142800      -0.08402600       2.20597400
C        4.25889600      -2.81569800       2.23705900
C        4.73411500      -1.94709300       3.19924700
H        5.39653400      -2.31072800       3.97844600
C        4.35807800      -0.58170100       3.18462800
H        4.73024500       0.08311300       3.95763700
C        4.76200900       3.86226500      -0.94952200
H        5.51454800       4.60667100      -1.18978700
C        5.11812800       2.49167400      -0.92860100
H        6.13772900       2.20100400      -1.16105800
H        3.23723100       0.96160000       2.21399300
H        4.53430400      -3.86554100       2.24344900
