59
Properties=species:S:1:pos:R:3 pbc="F F F"
Si      -1.12387500      -0.51571600      -0.99130300
O       -2.77004000       0.14506200      -0.23504300
C       -3.80804300      -0.55098000      -0.08905700
C       -5.00796000      -0.03881200       0.50730800
H       -3.80693200      -1.59225000      -0.43223500
C       -5.09853100       1.29046600       0.98377300
C       -6.11394800      -0.91251100       0.61050300
C       -6.28512600       1.72762300       1.55462000
H       -4.23996400       1.94865700       0.89947700
C       -7.29859000      -0.46246100       1.18377500
H       -6.02852700      -1.93002300       0.23832300
C       -7.38179200       0.85423500       1.65419900
H       -6.36822900       2.74486000       1.92499500
H       -8.15335800      -1.12649400       1.26584600
H       -8.30716800       1.20589400       2.10227300
C       -0.59170700      -2.26872600       2.67104400
C       -0.86181500      -2.19023400       1.39132800
H       -1.37087100      -2.13557700       3.42037400
H        0.41801100      -2.47274000       3.02442800
C       -1.13181600      -2.10362200       0.11579400
H       -1.42012300      -3.01913900      -0.40293400
Cl      -1.11009600       1.37758000      -2.18264400
Cl      -2.10114800      -1.59014400      -2.68184600
O       -0.31075500       0.43269600       0.51154600
O        0.65518100      -0.80660700      -1.68056700
C        1.88715600       0.93095700      -0.01778700
C        2.16760800      -0.52257500       0.05600200
C        1.81407000      -2.68691800      -0.89755400
C        0.31410500       2.67922000       0.42340600
C        1.26865000       3.64253100       0.19121700
C        2.89308500       1.88217500      -0.32608300
C        2.57051100       3.27954600      -0.21475200
C        3.07567400      -1.06254200       1.00349100
C        3.36352300      -2.47122600       0.95003400
C        2.72320600      -3.25382600      -0.03341200
N        0.64102400       1.33349600       0.29179300
N        1.54848200      -1.32489700      -0.82623000
C        1.13764000      -3.44229300      -1.89685300
C       -1.01373000       2.99325400       0.83148800
N        0.64089700      -4.12768300      -2.69102900
N       -2.06390200       3.32844800       1.19471700
H        2.92438500      -4.31634600      -0.10955100
H        0.99919600       4.68619100       0.30822900
C        3.55752100       4.24882400      -0.51259000
H        3.30506200       5.30069500      -0.42394100
C        4.18873900       1.50161100      -0.75684200
H        4.43770600       0.45301100      -0.87118100
C        3.67789100      -0.27116600       2.01367900
C        4.26477100      -3.03586400       1.88378200
C        4.84561600      -2.23742900       2.84834500
H        5.53366100      -2.66988500       3.56788000
C        4.54321100      -0.85527600       2.91628700
H        4.99555000      -0.24673500       3.69288000
C        4.81405700       3.84862300      -0.92082800
H        5.57015800       4.59146000      -1.15478900
C        5.12483800       2.47271800      -1.04967900
H        6.11238400       2.17798300      -1.39026700
H        3.45047800       0.78562400       2.08450900
H        4.48049600      -4.09826100       1.83018800
