77
Properties=species:S:1:pos:R:3 pbc="F F F"
Si       0.63701200       0.85632900      -0.43105600
O        2.41918400       0.42713400       0.08217900
C        3.26410000       1.22279600       0.56964800
C        4.65573200       0.88002700       0.69034300
H        2.92957200       2.19312400       0.94947600
C        5.16662400      -0.33791100       0.19032600
C        5.51174300       1.80521100       1.32534500
C        6.51921300      -0.61771900       0.32848000
H        4.49637800      -1.03956600      -0.29290000
C        6.86499200       1.51398600       1.46278800
H        5.10386600       2.74053700       1.69966300
C        7.36653600       0.30475300       0.96347800
H        6.92313400      -1.55028600      -0.05389300
H        7.52951400       2.21999400       1.95115900
H        8.42434300       0.07875600       1.06705500
C        3.52809100       3.29155500      -1.81711400
C        2.28486600       2.93317100      -1.58269100
H        4.09462500       3.87997600      -1.09600400
H        4.02554500       3.02846500      -2.75019800
C        1.08378900       2.51195200      -1.31094500
H        0.22237700       3.12377600      -1.58129400
Cl       1.02247200      -0.40319300      -2.28225200
Cl       0.26892800       1.96134500       1.55591000
O        0.17153100      -0.63802200       0.61242200
O       -1.14771800       0.96127200      -1.01274100
C       -1.80775100      -1.50299500      -0.19213400
C       -2.46913800      -0.30913000       0.38810400
C       -2.78079000       2.08110900       0.25701000
C        0.21368800      -2.82168700      -0.28262500
C       -0.47791900      -3.81041000      -0.95138800
C       -2.53258500      -2.48377100      -0.90351600
C       -1.83303200      -3.67069600      -1.31180400
C       -3.44134900      -0.42216400       1.40844700
C       -4.09381500       0.77946700       1.85062800
C       -3.75047200       1.99929000       1.23257900
C       -3.90437100      -2.32730800      -1.24316000
C       -2.53252300      -4.67184200      -2.03270400
C       -3.77335700      -1.66200400       2.02023800
C       -5.07172200       0.69985600       2.87444200
H       -4.26205000       2.91180300       1.51782400
C       -2.42000600       3.34848800      -0.40413700
N       -0.48629500      -1.66391200       0.03168900
N       -2.14439300       0.90162500      -0.10915000
C        1.61821900      -2.98864700       0.13373300
H        0.05100200      -4.72565100      -1.19177900
C       -3.86371500      -4.49558300      -2.34416400
C       -4.54944400      -3.31602700      -1.95195500
H       -4.43307300      -1.42625700      -0.95448300
H       -2.00134500      -5.56963300      -2.33409900
H       -4.39614500      -5.26192100      -2.89953400
H       -5.59426600      -3.19120900      -2.21882600
C        2.52904200      -3.55529800      -0.77311400
C        2.03748400      -2.69887300       1.44384300
C        4.24371400      -3.56028500       0.93362900
C        3.34256800      -2.98918600       1.83818800
C        3.83633400      -3.83615700      -0.37489000
H        2.21428400      -3.75706500      -1.79232500
H        4.53542900      -4.26415100      -1.08759100
H        5.26179000      -3.77677700       1.24466000
H        3.65649400      -2.76886300       2.85447300
H        1.34342300      -2.25967300       2.15084400
C       -2.38310500       3.46392300      -1.80418200
C       -2.16967000       4.47722300       0.39172300
C       -1.83096300       5.81388000      -1.59702700
C       -1.87159900       5.70316000      -0.20392200
C       -2.09246700       4.69359400      -2.39391800
H       -2.57861400       2.59637500      -2.42441900
H       -2.06657800       4.77578500      -3.47670300
H       -1.59457100       6.76754000      -2.06080300
H       -1.66337600       6.56762300       0.41998200
H       -2.17973300       4.38189600       1.47301000
C       -4.72246000      -1.70088600       3.01755000
C       -5.37922600      -0.51733800       3.44383500
H       -5.56561400       1.61065700       3.19934800
H       -3.27412700      -2.57132700       1.70650100
H       -4.96881600      -2.64821900       3.48705700
H       -6.12614300      -0.57510100       4.22992600
