77
Properties=species:S:1:pos:R:3 pbc="F F F"
Si       0.56013000       0.94823600      -0.64783100
O        2.45135300       0.68645900      -0.27767500
C        3.22484900       1.59394300       0.11300300
C        4.62378100       1.36464500       0.35375200
H        2.82729900       2.60229200       0.27579100
C        5.22315900       0.11054600       0.09981700
C        5.39578500       2.43683900       0.85137700
C        6.57809400      -0.05985400       0.34602100
H        4.61633800      -0.70255200      -0.28167100
C        6.75267300       2.25430600       1.09978200
H        4.92188100       3.39695300       1.03816700
C        7.34101200       1.00862200       0.84578000
H        7.04979900      -1.01838800       0.15179000
H        7.35293000       3.07274900       1.48489300
H        8.40156200       0.86738700       1.03562800
C        1.37032200       1.56695300       3.26260700
C        0.79658000       1.81624200       2.10893800
H        2.36101200       1.95675600       3.49543400
H        0.87216700       0.97234300       4.02752500
C        0.27979300       2.03181300       0.93081500
H       -0.31564700       2.93170100       0.77602400
Cl       0.96483100      -0.32739500      -2.45013300
Cl       0.92582400       2.81552500      -1.86712600
O        0.32558000      -0.58744100       0.46703000
O       -1.25277300       0.84560700      -1.14859100
C       -1.63072800      -1.61151500      -0.16468300
C       -2.32424500      -0.44540300       0.43566900
C       -2.85231100       1.90086900       0.24147800
C        0.46292000      -2.79281800      -0.35944100
C       -0.20080400      -3.84028400      -0.96393800
C       -2.33555400      -2.65823100      -0.79565600
C       -1.58449700      -3.80286800      -1.23190700
C       -3.16841200      -0.58892000       1.55836600
C       -3.86966100       0.57504000       2.02438800
C       -3.70179800       1.78508100       1.32244100
C       -3.73715000      -2.60826300      -1.02771100
C       -2.26224700      -4.86696000      -1.87945300
C       -3.32584400      -1.82292700       2.24722500
C       -4.72164300       0.46516200       3.15244100
H       -4.26378000       2.66236400       1.62222000
C       -2.69386300       3.16284100      -0.50240700
N       -0.29012500      -1.67435300      -0.02458200
N       -2.15197900       0.76191000      -0.14090400
C        1.89551300      -2.85965200      -0.01858700
H        0.37268700      -4.72402900      -1.22050600
C       -3.62282500      -4.79298000      -2.09009100
C       -4.36118100      -3.65753200      -1.66514400
H       -4.30606800      -1.74014100      -0.71465700
H       -1.69216500      -5.73173400      -2.20528900
H       -4.13875100      -5.60762400      -2.58940300
H       -5.43001900      -3.61482100      -1.85025200
C        2.79135200      -3.39763600      -0.95678500
C        2.36176500      -2.50945400       1.26086700
C        4.58380800      -3.26806400       0.66331700
C        3.69757500      -2.72125500       1.59772700
C        4.13049900      -3.59562000      -0.61781600
H        2.43803500      -3.64456000      -1.95330400
H        4.81724200      -4.00320000      -1.35406400
H        5.62504200      -3.42590800       0.92978100
H        4.04806900      -2.45768800       2.59150700
H        1.67960500      -2.08680900       1.98934600
C       -2.76626600       3.20870800      -1.90481100
C       -2.54973000       4.35766200       0.22400500
C       -2.54498100       5.62040800      -1.83865100
C       -2.46769800       5.57975800      -0.44316600
C       -2.69998000       4.43430600      -2.56442300
H       -2.87673300       2.29162100      -2.47154000
H       -2.76192200       4.46273600      -3.64844000
H       -2.48111700       6.57188700      -2.35929800
H       -2.33984700       6.49620800       0.12569100
H       -2.48230000       4.32264400       1.30770400
C       -4.15440400      -1.89123800       3.34515700
C       -4.85977100      -0.74540800       3.79742800
H       -5.25508500       1.34666300       3.49507600
H       -2.78674000      -2.70199100       1.91329600
H       -4.26811700      -2.83227000       3.87436000
H       -5.51017600      -0.82717300       4.66312700
