77
Properties=species:S:1:pos:R:3 pbc="F F F"
Si       0.44564400       1.11724200      -0.70456500
O        2.34725600       1.19163300      -0.49289800
C        3.05701900       0.72479600       0.43529900
C        4.46146100       1.02667700       0.54415000
H        2.61502000       0.05025800       1.16900100
C        5.14137500       1.77575000      -0.44121200
C        5.15561900       0.54110600       1.67155200
C        6.50015200       2.02367400      -0.29515200
H        4.59415200       2.14085600      -1.30427900
C        6.51414800       0.80275200       1.81553800
H        4.61765800      -0.03031200       2.42145100
C        7.18511900       1.53906400       0.83085200
H        7.03392000       2.59209000      -1.05080900
H        7.05264300       0.43571100       2.68393600
H        8.24785100       1.73814400       0.93904200
C        1.74421300       2.12299800       2.98826400
C        0.90866700       2.14113800       1.97350400
H        1.60476200       1.44275800       3.82790700
H        2.59556000       2.80171700       3.02731000
C        0.15094200       2.13373600       0.91566100
H       -0.69504200       2.81984900       0.87733400
Cl       0.87236000      -0.11551200      -2.53691900
Cl       0.51194900       2.99825500      -1.91121800
O        0.40647700      -0.48531600       0.41509600
O       -1.38196500       0.83443400      -1.09385500
C       -1.45774700      -1.68386700      -0.20339300
C       -2.25271300      -0.62616100       0.46562100
C       -3.03626200       1.65398800       0.38754900
C        0.73288000      -2.63305500      -0.50340400
C        0.17623900      -3.70694000      -1.15801700
C       -2.06528800      -2.76858500      -0.87304200
C       -1.21268300      -3.80080400      -1.39440700
C       -3.04653700      -0.90853400       1.59901800
C       -3.85208400       0.15303500       2.13574900
C       -3.83374900       1.40265800       1.48474800
C       -3.47029000      -2.85377000      -1.07045000
C       -1.79339100      -4.89084800      -2.08933100
C       -3.05866300      -2.18287400       2.22995400
C       -4.65598200      -0.09614500       3.27680000
H       -4.47711200       2.20174000       1.83548500
C       -3.04394600       2.95334400      -0.30757600
N       -0.11593600      -1.61434300      -0.09431900
N       -2.22443200       0.61565200      -0.06013000
C        2.16652800      -2.56651600      -0.15297700
H        0.83616600      -4.50498000      -1.48015600
C       -3.16019100      -4.94903000      -2.26510100
C       -3.99982400      -3.92469300      -1.75604400
H       -4.11752500      -2.07065900      -0.69224200
H       -1.14588900      -5.67138400      -2.47742900
H       -3.60244800      -5.78380300      -2.80049800
H       -5.07228300      -3.98461300      -1.91345000
C        3.14241800      -2.59844000      -1.15717800
C        2.55017600      -2.58574100       1.19817300
C        4.87611600      -2.67663200       0.53191500
C        3.90159700      -2.65071500       1.53553500
C        4.49554800      -2.64428700      -0.81196700
H        2.83825100      -2.56919600      -2.19823800
H        5.24958900      -2.65308800      -1.59360000
H        5.92838600      -2.71336000       0.79822900
H        4.19399500      -2.67789600       2.58128900
H        1.79141900      -2.56517200       1.97504700
C       -3.16553000       3.04386200      -1.70433600
C       -3.01069000       4.12830900       0.46356000
C       -3.21281500       5.46079000      -1.54424700
C       -3.08636500       5.37626400      -0.15437700
C       -3.25807400       4.29328600      -2.31387800
H       -3.19104400       2.14216500      -2.30482300
H       -3.35780900       4.35576800      -3.39363200
H       -3.27241900       6.43243400      -2.02674600
H       -3.04265200       6.27889500       0.44816100
H       -2.90544600       4.06018800       1.54266800
C       -3.84568500      -2.38744600       3.34152100
C       -4.65131300      -1.34281300       3.86545500
H       -5.26787200       0.70843000       3.67329900
H       -2.44359400      -2.98554500       1.83969700
H       -3.84874700      -3.35893300       3.82596500
H       -5.26570700      -1.53124200       4.74074500
