77
Properties=species:S:1:pos:R:3 pbc="F F F"
Si       0.07665400      -1.56211400       0.84764100
O       -1.33505100      -1.06874100      -0.42138400
C       -2.17885400      -1.81859900      -0.97431500
C       -3.27605900      -1.29734600      -1.75450700
H       -2.06045100      -2.90286300      -0.90786200
C       -3.38666300       0.07623400      -2.05659800
C       -4.24156700      -2.20619200      -2.23405500
C       -4.46050900       0.53251100      -2.80900100
H       -2.61972100       0.75823900      -1.71002400
C       -5.32031200      -1.74138700      -2.98093900
H       -4.14030000      -3.26337900      -2.00367200
C       -5.43071500      -0.37421400      -3.26510500
H       -4.54794300       1.58783500      -3.04968200
H       -6.07163600      -2.43583700      -3.34396800
H       -6.27080800      -0.01278800      -3.85168900
C       -3.64663200      -2.91924800       1.51583900
C       -2.44401800      -2.53227100       1.88165200
H       -3.85924700      -3.96250800       1.28422500
H       -4.46818100      -2.20744000       1.46319000
C       -1.24106000      -2.12154100       2.14959600
H       -0.90720600      -2.06473100       3.18581300
Cl       1.81103900      -1.78493700       2.23766000
Cl       0.35746800      -3.55771300      -0.11370400
O        1.08960700      -0.81120900      -0.56009000
O       -0.07260600       0.24502800       1.54992800
C        1.86117200       1.28102400       0.04910700
C        0.46716500       1.75964500      -0.09399700
C       -1.75818400       1.73079300       0.83705600
C        3.41863500      -0.51938600      -0.34517100
C        4.45308500       0.30923700       0.03509300
C        2.89786300       2.14439000       0.46812200
C        4.23909700       1.62977400       0.47709600
C        0.10938900       2.74918300      -1.03799600
C       -1.23791800       3.24430600      -1.01129800
C       -2.12147800       2.73168100      -0.03958500
C        2.65809200       3.47730000       0.90163300
C        5.30069800       2.46986800       0.89914900
C        1.01768300       3.24860300      -2.01022000
C       -1.63205100       4.23464500      -1.94600700
H       -3.12975200       3.12423000       0.02947400
C       -2.69383200       1.17719400       1.83034600
N        2.13004800      -0.00177700      -0.27431400
N       -0.45277800       1.25245900       0.75255500
C        3.65303000      -1.88240300      -0.85331700
H        5.46265700      -0.08108700      -0.02746500
C        5.03963100       3.76031600       1.30720900
C        3.71184000       4.26232500       1.31360100
H        1.64676700       3.86646800       0.92023000
H        6.31280500       2.07683100       0.89752900
H        5.85346600       4.40080600       1.63368600
H        3.52530100       5.27658200       1.65269900
C        4.53028900      -2.72409000      -0.15107400
C        3.09726800      -2.31630900      -2.06777000
C        4.28753400      -4.41550400      -1.86405100
C        3.42212200      -3.57439100      -2.57167100
C        4.83907500      -3.98852100      -0.65192700
H        4.94663100      -2.39423300       0.79578700
H        5.50478200      -4.64062300      -0.09369300
H        4.52852500      -5.40056700      -2.25429800
H        2.99356300      -3.90119000      -3.51491400
H        2.41985400      -1.66955700      -2.61415900
C       -2.33382800       1.00681300       3.17794300
C       -4.00856700       0.89072000       1.42500100
C       -4.58011400       0.25610400       3.68759500
C       -4.94451700       0.42802400       2.34936000
C       -3.27583200       0.55311300       4.09823500
H       -1.32327100       1.22813500       3.50020800
H       -2.99037500       0.42756000       5.13874300
H       -5.30767500      -0.10827400       4.40746700
H       -5.95367100       0.19466400       2.02168600
H       -4.28881400       1.01011600       0.38300200
C        0.59913600       4.20527300      -2.90910400
C       -0.72853600       4.70494500      -2.87555300
H       -2.65104800       4.60884100      -1.91565000
H        2.03208600       2.86841500      -2.04854100
H        1.29232000       4.57919300      -3.65625900
H       -1.03229100       5.46067600      -3.59365000
