77
Properties=species:S:1:pos:R:3 pbc="F F F"
Si       0.18174400      -1.48346600       1.14060700
O       -1.43747100      -1.30434300       0.03435700
C       -1.56346800      -1.18423400      -1.21051100
C       -2.84404200      -1.30078100      -1.86223200
H       -0.69720400      -0.91736400      -1.82365000
C       -4.00168800      -1.70030100      -1.15874400
C       -2.92202900      -0.96974200      -3.23112500
C       -5.21912300      -1.75944600      -1.82374200
H       -3.92197100      -1.96178400      -0.10890200
C       -4.14776400      -1.02473700      -3.88777600
H       -2.02183800      -0.66838700      -3.76089700
C       -5.29311500      -1.41925200      -3.18452700
H       -6.11428100      -2.07019700      -1.29348200
H       -4.21625200      -0.76663600      -4.94004900
H       -6.24939100      -1.46659200      -3.69814900
C       -0.30547200      -3.92684900      -1.96603700
C        0.10900200      -3.64938700      -0.74853700
H        0.34382900      -3.78231000      -2.82907400
H       -1.29456600      -4.34653400      -2.14533800
C        0.46146600      -3.26216100       0.44028300
H        0.96134200      -3.94629900       1.12601100
Cl      -1.16003700      -2.17197300       2.77718100
Cl       1.99702800      -1.43212200       2.42549600
O        1.10919700      -0.77275900      -0.39414200
O       -0.11261200       0.32282400       1.66441900
C        1.60188800       1.44925400      -0.04372800
C        0.14762600       1.69685800      -0.17223300
C       -2.02323800       1.47077300       0.85961100
C        3.37711600      -0.16466600      -0.30481000
C        4.29759100       0.83409800      -0.06334000
C        2.51850800       2.48856800       0.22400800
C        3.91681200       2.15934200       0.23089700
C       -0.38436500       2.46742900      -1.22967300
C       -1.79864000       2.71822700      -1.23169200
C       -2.56546700       2.23517500      -0.15344600
C        2.10995900       3.82114300       0.50277700
C        4.86452700       3.17796800       0.50461000
C        0.41536300       2.96146100      -2.29674700
C       -2.36921100       3.46261600      -2.29495600
H       -3.62163000       2.47264500      -0.09607100
C       -2.82896800       0.98962000       1.99263100
N        2.03239200       0.18788500      -0.24498200
N       -0.66412300       1.17701200       0.77354000
C        3.77225600      -1.54389800      -0.64238300
H        5.34969500       0.57780100      -0.11819200
C        4.44095200       4.46357200       0.76683100
C        3.05821600       4.78404700       0.76883200
H        1.05541900       4.07232400       0.51568800
H        5.92044600       2.92530200       0.50603100
H        5.16857600       5.24110400       0.97924600
H        2.74512500       5.80005300       0.98852200
C        4.81094700      -2.14511900       0.08814500
C        3.19385900      -2.23849400      -1.71844600
C        4.67969300      -4.10901400      -1.31905700
C        3.65267200      -3.51031700      -2.05588200
C        5.25739500      -3.42334500      -0.24564800
H        5.24601800      -1.61906300       0.93228900
H        6.04945500      -3.88538100       0.33665500
H        5.02554300      -5.10608100      -1.57756400
H        3.20263900      -4.03839600      -2.89164100
H        2.38994400      -1.78507400      -2.28589700
C       -2.38156200       1.10344100       3.31962400
C       -4.11760300       0.49029000       1.73669700
C       -4.49279700       0.21648600       4.10978400
C       -4.94089800       0.09682300       2.79054000
C       -3.21637600       0.72676700       4.36944600
H       -1.38904900       1.48615600       3.52593300
H       -2.86564600       0.82355800       5.39284400
H       -5.13414700      -0.08864400       4.93199500
H       -5.92828000      -0.30490800       2.58143800
H       -4.46207300       0.39110400       0.71198800
C       -0.17319800       3.67476000      -3.31734100
C       -1.56980600       3.92970800      -3.31644700
H       -3.43803100       3.65394100      -2.28787400
H        1.48142600       2.76627900      -2.30950600
H        0.43715700       4.04443300      -4.13539700
H       -2.00843200       4.49693500      -4.13186400
