14

O -1.619432418 4.335953822 -0.638861185
C -0.850752188 2.307884060 0.511271771
C -2.393639624 0.101314794 -0.035459482
C -0.920245638 -2.136589231 -0.686502730
C 1.711035247 -1.527150345 0.403854542
C 1.923595062 1.311474390 -0.020955116
H -0.899641349 2.284684044 2.681226781
H -4.430731864 0.274811626 -0.199403088
H -1.798317105 -3.926127292 -0.152422626
H -0.784467304 -2.154346156 -2.767288632
H 3.202198139 -2.605825840 -0.517142754
H 1.755668122 -1.977436931 2.418194612
H 3.292730288 2.261978682 1.179090023
H 2.338980996 1.757280701 -1.992582141

