11

O -2.224193665 4.054108238 1.747827119
C -0.632193834 2.746665918 0.955832337
C -2.208315600 -1.712939203 -0.979723634
C 0.270436098 -2.131467487 -0.479494968
C 1.920867734 -0.433025488 0.724052061
N 1.659121353 2.240847934 0.418350914
H -3.195439061 -2.818883031 -2.391805569
H -3.352916874 -0.445454160 0.139771476
H 1.122612875 -3.900331926 -1.107921785
H 3.730604926 -1.004690960 1.478553240
H 2.894018541 3.404113807 -0.505632054

