24

O     0.57404   0.25542  -2.91576
C     0.95313   0.85529  -1.87743
O     1.22105   2.07681  -1.77517
C     1.06742   0.00773  -0.55705
C    -0.27487   0.33675   0.39797
C    -1.69452  -0.08869   0.13910
C    -2.75825  -0.02511   1.08250
C    -4.03491  -0.50120   0.75806
C    -4.29449  -1.05473  -0.50394
C    -3.26068  -1.11695  -1.44023
C    -1.98540  -0.64125  -1.12431
N    -0.02713   1.01373   1.54112
O     1.25216   1.23370   1.74166
C     2.22817   0.31642   0.26595
C     2.88240  -0.74169   1.15536
O     2.21020  -1.78528   1.37045
O     4.01271  -0.46104   1.62956
H     0.97660  -1.09692  -0.75323
H    -2.61515   0.38721   2.08444
H    -4.87150  -0.46308   1.49189
H    -5.29284  -1.44025  -0.76861
H    -3.43544  -1.54021  -2.43316
H    -1.18888  -0.66544  -1.85549
H     2.87836   1.18361   0.01425
24

O     0.57153   0.25661  -2.91713
C     0.95710   0.85422  -1.87937
O     1.21997   2.07690  -1.77527
C     1.09080   0.00203  -0.57179
C    -0.29316   0.34392   0.41244
C    -1.70106  -0.08862   0.14133
C    -2.76404  -0.02612   1.08408
C    -4.03909  -0.50285   0.75787
C    -4.29547  -1.05558  -0.50488
C    -3.26067  -1.11709  -1.44031
C    -1.98613  -0.64047  -1.12331
N    -0.01723   1.01140   1.53398
O     1.24358   1.24365   1.75818
C     2.23975   0.30915   0.25348
C     2.88398  -0.74248   1.15333
O     2.21007  -1.78471   1.37129
O     4.01287  -0.46154   1.63166
H     0.97597  -1.09636  -0.75320
H    -2.61700   0.38704   2.08485
H    -4.87308  -0.46383   1.49142
H    -5.29294  -1.44060  -0.76937
H    -3.43518  -1.54022  -2.43323
H    -1.18862  -0.66461  -1.85472
H     2.87959   1.18333   0.01450
24

O     0.56903   0.25779  -2.91851
C     0.96107   0.85314  -1.88131
O     1.21888   2.07700  -1.77536
C     1.11418  -0.00368  -0.58653
C    -0.31145   0.35109   0.42691
C    -1.70760  -0.08855   0.14356
C    -2.76983  -0.02713   1.08565
C    -4.04327  -0.50450   0.75768
C    -4.29644  -1.05644  -0.50581
C    -3.26067  -1.11723  -1.44040
C    -1.98686  -0.63968  -1.12230
N    -0.00733   1.00906   1.52685
O     1.23499   1.25360   1.77471
C     2.25134   0.30188   0.24101
C     2.88556  -0.74327   1.15130
O     2.20995  -1.78415   1.37213
O     4.01303  -0.46204   1.63375
H     0.97535  -1.09580  -0.75318
H    -2.61885   0.38687   2.08527
H    -4.87465  -0.46459   1.49095
H    -5.29305  -1.44095  -0.77013
H    -3.43493  -1.54023  -2.43330
H    -1.18835  -0.66378  -1.85394
H     2.88082   1.18304   0.01475
24

O     0.56653   0.25898  -2.91988
C     0.96504   0.85207  -1.88325
O     1.21780   2.07709  -1.77546
C     1.13756  -0.00939  -0.60127
C    -0.32974   0.35825   0.44139
C    -1.71414  -0.08847   0.14579
C    -2.77562  -0.02814   1.08723
C    -4.04744  -0.50615   0.75750
C    -4.29742  -1.05730  -0.50675
C    -3.26067  -1.11737  -1.44048
C    -1.98758  -0.63890  -1.12129
N     0.00256   1.00673   1.51971
O     1.22641   1.26355   1.79123
C     2.26293   0.29461   0.22854
C     2.88713  -0.74406   1.14927
O     2.20983  -1.78358   1.37296
O     4.01320  -0.46255   1.63584
H     0.97472  -1.09524  -0.75315
H    -2.62069   0.38671   2.08568
H    -4.87623  -0.46534   1.49047
H    -5.29316  -1.44130  -0.77089
H    -3.43468  -1.54024  -2.43336
H    -1.18809  -0.66295  -1.85316
H     2.88205   1.18276   0.01500
24

O     0.56402   0.26017  -2.92126
C     0.96901   0.85100  -1.88519
O     1.21672   2.07719  -1.77555
C     1.16094  -0.01509  -0.61601
C    -0.34803   0.36542   0.45586
C    -1.72068  -0.08840   0.14802
C    -2.78141  -0.02915   1.08881
C    -4.05162  -0.50779   0.75731
C    -4.29840  -1.05815  -0.50768
C    -3.26066  -1.11750  -1.44056
C    -1.98831  -0.63811  -1.12029
N     0.01246   1.00440   1.51257
O     1.21782   1.27351   1.80776
C     2.27451   0.28734   0.21607
C     2.88871  -0.74486   1.14724
O     2.20970  -1.78302   1.37380
O     4.01336  -0.46305   1.63794
H     0.97409  -1.09468  -0.75312
H    -2.62254   0.38654   2.08609
H    -4.87781  -0.46610   1.49000
H    -5.29326  -1.44165  -0.77165
H    -3.43442  -1.54025  -2.43343
H    -1.18783  -0.66212  -1.85239
H     2.88327   1.18247   0.01525
24

O     0.56152   0.26135  -2.92263
C     0.97298   0.84993  -1.88713
O     1.21563   2.07728  -1.77565
C     1.18432  -0.02080  -0.63075
C    -0.36632   0.37259   0.47033
C    -1.72722  -0.08833   0.15025
C    -2.78720  -0.03016   1.09038
C    -4.05580  -0.50944   0.75712
C    -4.29938  -1.05901  -0.50862
C    -3.26066  -1.11764  -1.44065
C    -1.98904  -0.63733  -1.11928
N     0.02236   1.00207   1.50544
O     1.20924   1.28346   1.82429
C     2.28610   0.28007   0.20360
C     2.89029  -0.74565   1.14521
O     2.20958  -1.78245   1.37463
O     4.01353  -0.46355   1.64003
H     0.97347  -1.09412  -0.75310
H    -2.62439   0.38638   2.08650
H    -4.87938  -0.46685   1.48953
H    -5.29337  -1.44200  -0.77241
H    -3.43417  -1.54026  -2.43350
H    -1.18756  -0.66128  -1.85161
H     2.88450   1.18219   0.01550
24

O     0.55902   0.26254  -2.92401
C     0.97695   0.84886  -1.88906
O     1.21455   2.07738  -1.77574
C     1.20770  -0.02651  -0.64549
C    -0.38461   0.37975   0.48480
C    -1.73375  -0.08826   0.15248
C    -2.79299  -0.03117   1.09196
C    -4.05998  -0.51109   0.75694
C    -4.30036  -1.05987  -0.50955
C    -3.26065  -1.11778  -1.44073
C    -1.98977  -0.63654  -1.11827
N     0.03225   0.99973   1.49830
O     1.20066   1.29341   1.84081
C     2.29768   0.27281   0.19113
C     2.89187  -0.74644   1.14318
O     2.20945  -1.78189   1.37547
O     4.01369  -0.46406   1.64212
H     0.97284  -1.09356  -0.75307
H    -2.62624   0.38621   2.08691
H    -4.88096  -0.46761   1.48905
H    -5.29348  -1.44236  -0.77317
H    -3.43392  -1.54027  -2.43357
H    -1.18730  -0.66045  -1.85083
H     2.88573   1.18190   0.01575
24

O     0.55651   0.26373  -2.92539
C     0.98092   0.84778  -1.89100
O     1.21346   2.07748  -1.77584
C     1.23108  -0.03221  -0.66023
C    -0.40290   0.38692   0.49927
C    -1.74029  -0.08818   0.15471
C    -2.79879  -0.03218   1.09354
C    -4.06416  -0.51274   0.75675
C    -4.30133  -1.06072  -0.51049
C    -3.26065  -1.11792  -1.44081
C    -1.99049  -0.63576  -1.11727
N     0.04215   0.99740   1.49116
O     1.19207   1.30336   1.85734
C     2.30927   0.26554   0.17866
C     2.89344  -0.74723   1.14115
O     2.20933  -1.78132   1.37630
O     4.01385  -0.46456   1.64422
H     0.97222  -1.09300  -0.75304
H    -2.62808   0.38605   2.08732
H    -4.88254  -0.46836   1.48858
H    -5.29359  -1.44271  -0.77392
H    -3.43367  -1.54028  -2.43364
H    -1.18704  -0.65962  -1.85006
H     2.88696   1.18162   0.01600
24

O     0.55401   0.26491  -2.92676
C     0.98489   0.84671  -1.89294
O     1.21238   2.07757  -1.77593
C     1.25446  -0.03792  -0.67496
C    -0.42119   0.39409   0.51374
C    -1.74683  -0.08811   0.15694
C    -2.80458  -0.03319   1.09512
C    -4.06834  -0.51438   0.75656
C    -4.30231  -1.06158  -0.51142
C    -3.26065  -1.11806  -1.44089
C    -1.99122  -0.63497  -1.11626
N     0.05205   0.99507   1.48402
O     1.18349   1.31331   1.87387
C     2.32086   0.25827   0.16619
C     2.89502  -0.74803   1.13911
O     2.20921  -1.78076   1.37714
O     4.01402  -0.46506   1.64631
H     0.97159  -1.09245  -0.75301
H    -2.62993   0.38588   2.08774
H    -4.88411  -0.46911   1.48811
H    -5.29369  -1.44306  -0.77468
H    -3.43341  -1.54029  -2.43370
H    -1.18677  -0.65879  -1.84928
H     2.88819   1.18133   0.01625
24

O     0.55151   0.26610  -2.92814
C     0.98886   0.84564  -1.89488
O     1.21130   2.07767  -1.77603
C     1.27784  -0.04362  -0.68970
C    -0.43949   0.40125   0.52821
C    -1.75337  -0.08804   0.15917
C    -2.81037  -0.03420   1.09669
C    -4.07252  -0.51603   0.75638
C    -4.30329  -1.06244  -0.51236
C    -3.26064  -1.11820  -1.44098
C    -1.99195  -0.63419  -1.11526
N     0.06194   0.99274   1.47689
O     1.17490   1.32327   1.89039
C     2.33244   0.25100   0.15372
C     2.89660  -0.74882   1.13708
O     2.20908  -1.78019   1.37798
O     4.01418  -0.46556   1.64841
H     0.97097  -1.09189  -0.75299
H    -2.63178   0.38571   2.08815
H    -4.88569  -0.46987   1.48763
H    -5.29380  -1.44341  -0.77544
H    -3.43316  -1.54030  -2.43377
H    -1.18651  -0.65796  -1.84850
H     2.88941   1.18105   0.01650
24

O     0.54900   0.26728  -2.92951
C     0.99284   0.84457  -1.89682
O     1.21021   2.07776  -1.77612
C     1.30122  -0.04933  -0.70444
C    -0.45778   0.40842   0.54269
C    -1.75991  -0.08797   0.16140
C    -2.81616  -0.03521   1.09827
C    -4.07670  -0.51768   0.75619
C    -4.30427  -1.06329  -0.51329
C    -3.26064  -1.11833  -1.44106
C    -1.99267  -0.63340  -1.11425
N     0.07184   0.99040   1.46975
O     1.16632   1.33322   1.90692
C     2.34403   0.24373   0.14125
C     2.89817  -0.74961   1.13505
O     2.20896  -1.77963   1.37881
O     4.01435  -0.46607   1.65050
H     0.97034  -1.09133  -0.75296
H    -2.63363   0.38555   2.08856
H    -4.88727  -0.47062   1.48716
H    -5.29391  -1.44376  -0.77620
H    -3.43291  -1.54031  -2.43384
H    -1.18624  -0.65713  -1.84773
H     2.89064   1.18076   0.01675
24

O     0.54650   0.26847  -2.93089
C     0.99681   0.84349  -1.89876
O     1.20913   2.07786  -1.77622
C     1.32460  -0.05504  -0.71918
C    -0.47607   0.41559   0.55716
C    -1.76645  -0.08789   0.16363
C    -2.82195  -0.03622   1.09985
C    -4.08088  -0.51933   0.75600
C    -4.30525  -1.06415  -0.51423
C    -3.26064  -1.11847  -1.44114
C    -1.99340  -0.63262  -1.11324
N     0.08174   0.98807   1.46261
O     1.15774   1.34317   1.92344
C     2.35561   0.23646   0.12878
C     2.89975  -0.75040   1.13302
O     2.20883  -1.77906   1.37965
O     4.01451  -0.46657   1.65259
H     0.96972  -1.09077  -0.75293
H    -2.63548   0.38538   2.08897
H    -4.88884  -0.47138   1.48669
H    -5.29402  -1.44411  -0.77696
H    -3.43266  -1.54032  -2.43391
H    -1.18598  -0.65629  -1.84695
H     2.89187   1.18047   0.01700
24

O     0.54400   0.26966  -2.93226
C     1.00078   0.84242  -1.90070
O     1.20805   2.07795  -1.77632
C     1.34798  -0.06074  -0.73392
C    -0.49436   0.42276   0.57163
C    -1.77299  -0.08782   0.16586
C    -2.82774  -0.03723   1.10142
C    -4.08505  -0.52097   0.75582
C    -4.30623  -1.06501  -0.51516
C    -3.26063  -1.11861  -1.44123
C    -1.99413  -0.63183  -1.11224
N     0.09163   0.98574   1.45548
O     1.14915   1.35312   1.93997
C     2.36720   0.22920   0.11631
C     2.90133  -0.75120   1.13099
O     2.20871  -1.77850   1.38048
O     4.01467  -0.46707   1.65469
H     0.96909  -1.09021  -0.75291
H    -2.63732   0.38522   2.08938
H    -4.89042  -0.47213   1.48621
H    -5.29412  -1.44446  -0.77772
H    -3.43240  -1.54033  -2.43398
H    -1.18572  -0.65546  -1.84617
H     2.89310   1.18019   0.01725
24

O     0.54149   0.27084  -2.93364
C     1.00475   0.84135  -1.90264
O     1.20696   2.07805  -1.77641
C     1.37136  -0.06645  -0.74866
C    -0.51265   0.42992   0.58610
C    -1.77953  -0.08775   0.16809
C    -2.83353  -0.03824   1.10300
C    -4.08923  -0.52262   0.75563
C    -4.30720  -1.06586  -0.51610
C    -3.26063  -1.11875  -1.44131
C    -1.99486  -0.63105  -1.11123
N     0.10153   0.98341   1.44834
O     1.14057   1.36307   1.95650
C     2.37879   0.22193   0.10384
C     2.90291  -0.75199   1.12896
O     2.20859  -1.77793   1.38132
O     4.01484  -0.46758   1.65678
H     0.96847  -1.08965  -0.75288
H    -2.63917   0.38505   2.08979
H    -4.89199  -0.47289   1.48574
H    -5.29423  -1.44482  -0.77848
H    -3.43215  -1.54034  -2.43404
H    -1.18545  -0.65463  -1.84540
H     2.89433   1.17990   0.01750
24

O     0.53899   0.27203  -2.93501
C     1.00872   0.84028  -1.90458
O     1.20588   2.07814  -1.77651
C     1.39474  -0.07216  -0.76340
C    -0.53094   0.43709   0.60057
C    -1.78607  -0.08768   0.17031
C    -2.83932  -0.03925   1.10458
C    -4.09341  -0.52427   0.75545
C    -4.30818  -1.06672  -0.51703
C    -3.26062  -1.11889  -1.44139
C    -1.99558  -0.63026  -1.11022
N     0.11143   0.98107   1.44120
O     1.13198   1.37303   1.97302
C     2.39037   0.21466   0.09137
C     2.90448  -0.75278   1.12693
O     2.20846  -1.77737   1.38216
O     4.01500  -0.46808   1.65888
H     0.96784  -1.08909  -0.75285
H    -2.64102   0.38489   2.09020
H    -4.89357  -0.47364   1.48527
H    -5.29434  -1.44517  -0.77923
H    -3.43190  -1.54035  -2.43411
H    -1.18519  -0.65380  -1.84462
H     2.89555   1.17962   0.01775
24

O     0.53649   0.27322  -2.93639
C     1.01269   0.83921  -1.90652
O     1.20480   2.07824  -1.77660
C     1.41812  -0.07786  -0.77814
C    -0.54923   0.44426   0.61504
C    -1.79260  -0.08761   0.17254
C    -2.84511  -0.04026   1.10616
C    -4.09759  -0.52592   0.75526
C    -4.30916  -1.06758  -0.51797
C    -3.26062  -1.11902  -1.44148
C    -1.99631  -0.62947  -1.10922
N     0.12132   0.97874   1.43406
O     1.12340   1.38298   1.98955
C     2.40196   0.20739   0.07890
C     2.90606  -0.75357   1.12490
O     2.20834  -1.77680   1.38299
O     4.01517  -0.46858   1.66097
H     0.96722  -1.08853  -0.75282
H    -2.64287   0.38472   2.09062
H    -4.89515  -0.47440   1.48479
H    -5.29445  -1.44552  -0.77999
H    -3.43165  -1.54036  -2.43418
H    -1.18493  -0.65297  -1.84384
H     2.89678   1.17933   0.01800
24

O     0.53398   0.27440  -2.93776
C     1.01666   0.83813  -1.90846
O     1.20371   2.07833  -1.77670
C     1.44150  -0.08357  -0.79288
C    -0.56752   0.45142   0.62952
C    -1.79914  -0.08753   0.17477
C    -2.85090  -0.04128   1.10773
C    -4.10177  -0.52756   0.75507
C    -4.31014  -1.06843  -0.51890
C    -3.26062  -1.11916  -1.44156
C    -1.99704  -0.62869  -1.10821
N     0.13122   0.97641   1.42693
O     1.11482   1.39293   2.00607
C     2.41354   0.20012   0.06643
C     2.90764  -0.75437   1.12287
O     2.20822  -1.77624   1.38383
O     4.01533  -0.46908   1.66306
H     0.96659  -1.08797  -0.75280
H    -2.64471   0.38455   2.09103
H    -4.89672  -0.47515   1.48432
H    -5.29455  -1.44587  -0.78075
H    -3.43139  -1.54037  -2.43425
H    -1.18466  -0.65213  -1.84306
H     2.89801   1.17905   0.01825
24

O     0.53148   0.27559  -2.93914
C     1.02063   0.83706  -1.91040
O     1.20263   2.07843  -1.77679
C     1.46488  -0.08928  -0.80762
C    -0.58581   0.45859   0.64399
C    -1.80568  -0.08746   0.17700
C    -2.85669  -0.04229   1.10931
C    -4.10595  -0.52921   0.75489
C    -4.31112  -1.06929  -0.51984
C    -3.26061  -1.11930  -1.44164
C    -1.99776  -0.62790  -1.10720
N     0.14112   0.97408   1.41979
O     1.10623   1.40288   2.02260
C     2.42513   0.19285   0.05395
C     2.90921  -0.75516   1.12084
O     2.20809  -1.77567   1.38466
O     4.01549  -0.46959   1.66516
H     0.96596  -1.08741  -0.75277
H    -2.64656   0.38439   2.09144
H    -4.89830  -0.47591   1.48385
H    -5.29466  -1.44622  -0.78151
H    -3.43114  -1.54038  -2.43432
H    -1.18440  -0.65130  -1.84229
H     2.89924   1.17876   0.01850
24

O     0.52898   0.27678  -2.94051
C     1.02460   0.83599  -1.91234
O     1.20154   2.07852  -1.77689
C     1.48826  -0.09498  -0.82235
C    -0.60411   0.46576   0.65846
C    -1.81222  -0.08739   0.17923
C    -2.86248  -0.04330   1.11089
C    -4.11013  -0.53086   0.75470
C    -4.31209  -1.07015  -0.52077
C    -3.26061  -1.11944  -1.44172
C    -1.99849  -0.62712  -1.10620
N     0.15101   0.97174   1.41265
O     1.09765   1.41284   2.03913
C     2.43672   0.18559   0.04148
C     2.91079  -0.75595   1.11881
O     2.20797  -1.77511   1.38550
O     4.01566  -0.47009   1.66725
H     0.96534  -1.08685  -0.75274
H    -2.64841   0.38422   2.09185
H    -4.89988  -0.47666   1.48337
H    -5.29477  -1.44657  -0.78227
H    -3.43089  -1.54039  -2.43438
H    -1.18414  -0.65047  -1.84151
H     2.90047   1.17848   0.01875
24

O     0.52647   0.27796  -2.94189
C     1.02857   0.83492  -1.91428
O     1.20046   2.07862  -1.77698
C     1.51164  -0.10069  -0.83709
C    -0.62240   0.47293   0.67293
C    -1.81876  -0.08732   0.18146
C    -2.86827  -0.04431   1.11247
C    -4.11431  -0.53251   0.75451
C    -4.31307  -1.07100  -0.52171
C    -3.26061  -1.11958  -1.44181
C    -1.99922  -0.62633  -1.10519
N     0.16091   0.96941   1.40552
O     1.08906   1.42279   2.05565
C     2.44830   0.17832   0.02901
C     2.91237  -0.75674   1.11678
O     2.20784  -1.77454   1.38634
O     4.01582  -0.47059   1.66935
H     0.96471  -1.08629  -0.75271
H    -2.65026   0.38406   2.09226
H    -4.90145  -0.47742   1.48290
H    -5.29488  -1.44693  -0.78303
H    -3.43064  -1.54040  -2.43445
H    -1.18387  -0.64964  -1.84073
H     2.90169   1.17819   0.01900
24

O     0.52397   0.27915  -2.94326
C     1.03254   0.83384  -1.91622
O     1.19938   2.07871  -1.77708
C     1.53502  -0.10640  -0.85183
C    -0.64069   0.48009   0.68740
C    -1.82530  -0.08724   0.18369
C    -2.87406  -0.04532   1.11404
C    -4.11848  -0.53415   0.75433
C    -4.31405  -1.07186  -0.52264
C    -3.26060  -1.11971  -1.44189
C    -1.99995  -0.62555  -1.10418
N     0.17081   0.96708   1.39838
O     1.08048   1.43274   2.07218
C     2.45989   0.17105   0.01654
C     2.91395  -0.75754   1.11475
O     2.20772  -1.77398   1.38717
O     4.01599  -0.47110   1.67144
H     0.96409  -1.08573  -0.75269
H    -2.65210   0.38389   2.09267
H    -4.90303  -0.47817   1.48243
H    -5.29498  -1.44728  -0.78378
H    -3.43038  -1.54040  -2.43452
H    -1.18361  -0.64881  -1.83996
H     2.90292   1.17791   0.01926
24

O     0.52647   0.27796  -2.94189
C     1.02857   0.83492  -1.91428
O     1.20046   2.07862  -1.77698
C     1.51164  -0.10069  -0.83709
C    -0.62240   0.47293   0.67293
C    -1.81876  -0.08732   0.18146
C    -2.86827  -0.04431   1.11247
C    -4.11431  -0.53251   0.75451
C    -4.31307  -1.07100  -0.52171
C    -3.26061  -1.11958  -1.44181
C    -1.99922  -0.62633  -1.10519
N     0.16091   0.96941   1.40552
O     1.08906   1.42279   2.05565
C     2.44830   0.17832   0.02901
C     2.91237  -0.75674   1.11678
O     2.20784  -1.77454   1.38634
O     4.01582  -0.47059   1.66935
H     0.96471  -1.08629  -0.75271
H    -2.65026   0.38406   2.09226
H    -4.90145  -0.47742   1.48290
H    -5.29488  -1.44693  -0.78303
H    -3.43064  -1.54040  -2.43445
H    -1.18387  -0.64964  -1.84073
H     2.90169   1.17819   0.01900
24

O     0.52898   0.27678  -2.94051
C     1.02460   0.83599  -1.91234
O     1.20154   2.07852  -1.77689
C     1.48826  -0.09498  -0.82235
C    -0.60411   0.46576   0.65846
C    -1.81222  -0.08739   0.17923
C    -2.86248  -0.04330   1.11089
C    -4.11013  -0.53086   0.75470
C    -4.31209  -1.07015  -0.52077
C    -3.26061  -1.11944  -1.44172
C    -1.99849  -0.62712  -1.10620
N     0.15101   0.97174   1.41265
O     1.09765   1.41284   2.03913
C     2.43672   0.18559   0.04148
C     2.91079  -0.75595   1.11881
O     2.20797  -1.77511   1.38550
O     4.01566  -0.47009   1.66725
H     0.96534  -1.08685  -0.75274
H    -2.64841   0.38422   2.09185
H    -4.89988  -0.47666   1.48337
H    -5.29477  -1.44657  -0.78227
H    -3.43089  -1.54039  -2.43438
H    -1.18414  -0.65047  -1.84151
H     2.90047   1.17848   0.01875
24

O     0.53148   0.27559  -2.93914
C     1.02063   0.83706  -1.91040
O     1.20263   2.07843  -1.77679
C     1.46488  -0.08928  -0.80762
C    -0.58581   0.45859   0.64399
C    -1.80568  -0.08746   0.17700
C    -2.85669  -0.04229   1.10931
C    -4.10595  -0.52921   0.75489
C    -4.31112  -1.06929  -0.51984
C    -3.26061  -1.11930  -1.44164
C    -1.99776  -0.62790  -1.10720
N     0.14112   0.97408   1.41979
O     1.10623   1.40288   2.02260
C     2.42513   0.19285   0.05395
C     2.90921  -0.75516   1.12084
O     2.20809  -1.77567   1.38466
O     4.01549  -0.46959   1.66516
H     0.96596  -1.08741  -0.75277
H    -2.64656   0.38439   2.09144
H    -4.89830  -0.47591   1.48385
H    -5.29466  -1.44622  -0.78151
H    -3.43114  -1.54038  -2.43432
H    -1.18440  -0.65130  -1.84229
H     2.89924   1.17876   0.01850
24

O     0.53398   0.27440  -2.93776
C     1.01666   0.83813  -1.90846
O     1.20371   2.07833  -1.77670
C     1.44150  -0.08357  -0.79288
C    -0.56752   0.45142   0.62952
C    -1.79914  -0.08753   0.17477
C    -2.85090  -0.04128   1.10773
C    -4.10177  -0.52756   0.75507
C    -4.31014  -1.06843  -0.51890
C    -3.26062  -1.11916  -1.44156
C    -1.99704  -0.62869  -1.10821
N     0.13122   0.97641   1.42693
O     1.11482   1.39293   2.00607
C     2.41354   0.20012   0.06643
C     2.90764  -0.75437   1.12287
O     2.20822  -1.77624   1.38383
O     4.01533  -0.46908   1.66306
H     0.96659  -1.08797  -0.75280
H    -2.64471   0.38455   2.09103
H    -4.89672  -0.47515   1.48432
H    -5.29455  -1.44587  -0.78075
H    -3.43139  -1.54037  -2.43425
H    -1.18466  -0.65213  -1.84306
H     2.89801   1.17905   0.01825
24

O     0.53649   0.27322  -2.93639
C     1.01269   0.83921  -1.90652
O     1.20480   2.07824  -1.77660
C     1.41812  -0.07786  -0.77814
C    -0.54923   0.44426   0.61504
C    -1.79260  -0.08761   0.17254
C    -2.84511  -0.04026   1.10616
C    -4.09759  -0.52592   0.75526
C    -4.30916  -1.06758  -0.51797
C    -3.26062  -1.11902  -1.44148
C    -1.99631  -0.62947  -1.10922
N     0.12132   0.97874   1.43406
O     1.12340   1.38298   1.98955
C     2.40196   0.20739   0.07890
C     2.90606  -0.75357   1.12490
O     2.20834  -1.77680   1.38299
O     4.01517  -0.46858   1.66097
H     0.96722  -1.08853  -0.75282
H    -2.64287   0.38472   2.09062
H    -4.89515  -0.47440   1.48479
H    -5.29445  -1.44552  -0.77999
H    -3.43165  -1.54036  -2.43418
H    -1.18493  -0.65297  -1.84384
H     2.89678   1.17933   0.01800
24

O     0.53899   0.27203  -2.93501
C     1.00872   0.84028  -1.90458
O     1.20588   2.07814  -1.77651
C     1.39474  -0.07216  -0.76340
C    -0.53094   0.43709   0.60057
C    -1.78607  -0.08768   0.17031
C    -2.83932  -0.03925   1.10458
C    -4.09341  -0.52427   0.75545
C    -4.30818  -1.06672  -0.51703
C    -3.26062  -1.11889  -1.44139
C    -1.99558  -0.63026  -1.11022
N     0.11143   0.98107   1.44120
O     1.13198   1.37303   1.97302
C     2.39037   0.21466   0.09137
C     2.90448  -0.75278   1.12693
O     2.20846  -1.77737   1.38216
O     4.01500  -0.46808   1.65888
H     0.96784  -1.08909  -0.75285
H    -2.64102   0.38489   2.09020
H    -4.89357  -0.47364   1.48527
H    -5.29434  -1.44517  -0.77923
H    -3.43190  -1.54035  -2.43411
H    -1.18519  -0.65380  -1.84462
H     2.89555   1.17962   0.01775
24

O     0.54149   0.27084  -2.93364
C     1.00475   0.84135  -1.90264
O     1.20696   2.07805  -1.77641
C     1.37136  -0.06645  -0.74866
C    -0.51265   0.42992   0.58610
C    -1.77953  -0.08775   0.16809
C    -2.83353  -0.03824   1.10300
C    -4.08923  -0.52262   0.75563
C    -4.30720  -1.06586  -0.51610
C    -3.26063  -1.11875  -1.44131
C    -1.99486  -0.63105  -1.11123
N     0.10153   0.98341   1.44834
O     1.14057   1.36307   1.95650
C     2.37879   0.22193   0.10384
C     2.90291  -0.75199   1.12896
O     2.20859  -1.77793   1.38132
O     4.01484  -0.46758   1.65678
H     0.96847  -1.08965  -0.75288
H    -2.63917   0.38505   2.08979
H    -4.89199  -0.47289   1.48574
H    -5.29423  -1.44482  -0.77848
H    -3.43215  -1.54034  -2.43404
H    -1.18545  -0.65463  -1.84540
H     2.89433   1.17990   0.01750
24

O     0.54400   0.26966  -2.93226
C     1.00078   0.84242  -1.90070
O     1.20805   2.07795  -1.77632
C     1.34798  -0.06074  -0.73392
C    -0.49436   0.42276   0.57163
C    -1.77299  -0.08782   0.16586
C    -2.82774  -0.03723   1.10142
C    -4.08505  -0.52097   0.75582
C    -4.30623  -1.06501  -0.51516
C    -3.26063  -1.11861  -1.44123
C    -1.99413  -0.63183  -1.11224
N     0.09163   0.98574   1.45548
O     1.14915   1.35312   1.93997
C     2.36720   0.22920   0.11631
C     2.90133  -0.75120   1.13099
O     2.20871  -1.77850   1.38048
O     4.01467  -0.46707   1.65469
H     0.96909  -1.09021  -0.75291
H    -2.63732   0.38522   2.08938
H    -4.89042  -0.47213   1.48621
H    -5.29412  -1.44446  -0.77772
H    -3.43240  -1.54033  -2.43398
H    -1.18572  -0.65546  -1.84617
H     2.89310   1.18019   0.01725
24

O     0.54650   0.26847  -2.93089
C     0.99681   0.84349  -1.89876
O     1.20913   2.07786  -1.77622
C     1.32460  -0.05504  -0.71918
C    -0.47607   0.41559   0.55716
C    -1.76645  -0.08789   0.16363
C    -2.82195  -0.03622   1.09985
C    -4.08088  -0.51933   0.75600
C    -4.30525  -1.06415  -0.51423
C    -3.26064  -1.11847  -1.44114
C    -1.99340  -0.63262  -1.11324
N     0.08174   0.98807   1.46261
O     1.15774   1.34317   1.92344
C     2.35561   0.23646   0.12878
C     2.89975  -0.75040   1.13302
O     2.20883  -1.77906   1.37965
O     4.01451  -0.46657   1.65259
H     0.96972  -1.09077  -0.75293
H    -2.63548   0.38538   2.08897
H    -4.88884  -0.47138   1.48669
H    -5.29402  -1.44411  -0.77696
H    -3.43266  -1.54032  -2.43391
H    -1.18598  -0.65629  -1.84695
H     2.89187   1.18047   0.01700
24

O     0.54900   0.26728  -2.92951
C     0.99284   0.84457  -1.89682
O     1.21021   2.07776  -1.77612
C     1.30122  -0.04933  -0.70444
C    -0.45778   0.40842   0.54269
C    -1.75991  -0.08797   0.16140
C    -2.81616  -0.03521   1.09827
C    -4.07670  -0.51768   0.75619
C    -4.30427  -1.06329  -0.51329
C    -3.26064  -1.11833  -1.44106
C    -1.99267  -0.63340  -1.11425
N     0.07184   0.99040   1.46975
O     1.16632   1.33322   1.90692
C     2.34403   0.24373   0.14125
C     2.89817  -0.74961   1.13505
O     2.20896  -1.77963   1.37881
O     4.01435  -0.46607   1.65050
H     0.97034  -1.09133  -0.75296
H    -2.63363   0.38555   2.08856
H    -4.88727  -0.47062   1.48716
H    -5.29391  -1.44376  -0.77620
H    -3.43291  -1.54031  -2.43384
H    -1.18624  -0.65713  -1.84773
H     2.89064   1.18076   0.01675
24

O     0.55151   0.26610  -2.92814
C     0.98886   0.84564  -1.89488
O     1.21130   2.07767  -1.77603
C     1.27784  -0.04362  -0.68970
C    -0.43949   0.40125   0.52821
C    -1.75337  -0.08804   0.15917
C    -2.81037  -0.03420   1.09669
C    -4.07252  -0.51603   0.75638
C    -4.30329  -1.06244  -0.51236
C    -3.26064  -1.11820  -1.44098
C    -1.99195  -0.63419  -1.11526
N     0.06194   0.99274   1.47689
O     1.17490   1.32327   1.89039
C     2.33244   0.25100   0.15372
C     2.89660  -0.74882   1.13708
O     2.20908  -1.78019   1.37798
O     4.01418  -0.46556   1.64841
H     0.97097  -1.09189  -0.75299
H    -2.63178   0.38571   2.08815
H    -4.88569  -0.46987   1.48763
H    -5.29380  -1.44341  -0.77544
H    -3.43316  -1.54030  -2.43377
H    -1.18651  -0.65796  -1.84850
H     2.88941   1.18105   0.01650
24

O     0.55401   0.26491  -2.92676
C     0.98489   0.84671  -1.89294
O     1.21238   2.07757  -1.77593
C     1.25446  -0.03792  -0.67496
C    -0.42119   0.39409   0.51374
C    -1.74683  -0.08811   0.15694
C    -2.80458  -0.03319   1.09512
C    -4.06834  -0.51438   0.75656
C    -4.30231  -1.06158  -0.51142
C    -3.26065  -1.11806  -1.44089
C    -1.99122  -0.63497  -1.11626
N     0.05205   0.99507   1.48402
O     1.18349   1.31331   1.87387
C     2.32086   0.25827   0.16619
C     2.89502  -0.74803   1.13911
O     2.20921  -1.78076   1.37714
O     4.01402  -0.46506   1.64631
H     0.97159  -1.09245  -0.75301
H    -2.62993   0.38588   2.08774
H    -4.88411  -0.46911   1.48811
H    -5.29369  -1.44306  -0.77468
H    -3.43341  -1.54029  -2.43370
H    -1.18677  -0.65879  -1.84928
H     2.88819   1.18133   0.01625
24

O     0.55651   0.26373  -2.92539
C     0.98092   0.84778  -1.89100
O     1.21346   2.07748  -1.77584
C     1.23108  -0.03221  -0.66023
C    -0.40290   0.38692   0.49927
C    -1.74029  -0.08818   0.15471
C    -2.79879  -0.03218   1.09354
C    -4.06416  -0.51274   0.75675
C    -4.30133  -1.06072  -0.51049
C    -3.26065  -1.11792  -1.44081
C    -1.99049  -0.63576  -1.11727
N     0.04215   0.99740   1.49116
O     1.19207   1.30336   1.85734
C     2.30927   0.26554   0.17866
C     2.89344  -0.74723   1.14115
O     2.20933  -1.78132   1.37630
O     4.01385  -0.46456   1.64422
H     0.97222  -1.09300  -0.75304
H    -2.62808   0.38605   2.08732
H    -4.88254  -0.46836   1.48858
H    -5.29359  -1.44271  -0.77392
H    -3.43367  -1.54028  -2.43364
H    -1.18704  -0.65962  -1.85006
H     2.88696   1.18162   0.01600
24

O     0.55902   0.26254  -2.92401
C     0.97695   0.84886  -1.88906
O     1.21455   2.07738  -1.77574
C     1.20770  -0.02651  -0.64549
C    -0.38461   0.37975   0.48480
C    -1.73375  -0.08826   0.15248
C    -2.79299  -0.03117   1.09196
C    -4.05998  -0.51109   0.75694
C    -4.30036  -1.05987  -0.50955
C    -3.26065  -1.11778  -1.44073
C    -1.98977  -0.63654  -1.11827
N     0.03225   0.99973   1.49830
O     1.20066   1.29341   1.84081
C     2.29768   0.27281   0.19113
C     2.89187  -0.74644   1.14318
O     2.20945  -1.78189   1.37547
O     4.01369  -0.46406   1.64212
H     0.97284  -1.09356  -0.75307
H    -2.62624   0.38621   2.08691
H    -4.88096  -0.46761   1.48905
H    -5.29348  -1.44236  -0.77317
H    -3.43392  -1.54027  -2.43357
H    -1.18730  -0.66045  -1.85083
H     2.88573   1.18190   0.01575
24

O     0.56152   0.26135  -2.92263
C     0.97298   0.84993  -1.88713
O     1.21563   2.07728  -1.77565
C     1.18432  -0.02080  -0.63075
C    -0.36632   0.37259   0.47033
C    -1.72722  -0.08833   0.15025
C    -2.78720  -0.03016   1.09038
C    -4.05580  -0.50944   0.75712
C    -4.29938  -1.05901  -0.50862
C    -3.26066  -1.11764  -1.44065
C    -1.98904  -0.63733  -1.11928
N     0.02236   1.00207   1.50544
O     1.20924   1.28346   1.82429
C     2.28610   0.28007   0.20360
C     2.89029  -0.74565   1.14521
O     2.20958  -1.78245   1.37463
O     4.01353  -0.46355   1.64003
H     0.97347  -1.09412  -0.75310
H    -2.62439   0.38638   2.08650
H    -4.87938  -0.46685   1.48953
H    -5.29337  -1.44200  -0.77241
H    -3.43417  -1.54026  -2.43350
H    -1.18756  -0.66128  -1.85161
H     2.88450   1.18219   0.01550
24

O     0.56402   0.26017  -2.92126
C     0.96901   0.85100  -1.88519
O     1.21672   2.07719  -1.77555
C     1.16094  -0.01509  -0.61601
C    -0.34803   0.36542   0.45586
C    -1.72068  -0.08840   0.14802
C    -2.78141  -0.02915   1.08881
C    -4.05162  -0.50779   0.75731
C    -4.29840  -1.05815  -0.50768
C    -3.26066  -1.11750  -1.44056
C    -1.98831  -0.63811  -1.12029
N     0.01246   1.00440   1.51257
O     1.21782   1.27351   1.80776
C     2.27451   0.28734   0.21607
C     2.88871  -0.74486   1.14724
O     2.20970  -1.78302   1.37380
O     4.01336  -0.46305   1.63794
H     0.97409  -1.09468  -0.75312
H    -2.62254   0.38654   2.08609
H    -4.87781  -0.46610   1.49000
H    -5.29326  -1.44165  -0.77165
H    -3.43442  -1.54025  -2.43343
H    -1.18783  -0.66212  -1.85239
H     2.88327   1.18247   0.01525
24

O     0.56653   0.25898  -2.91988
C     0.96504   0.85207  -1.88325
O     1.21780   2.07709  -1.77546
C     1.13756  -0.00939  -0.60127
C    -0.32974   0.35825   0.44139
C    -1.71414  -0.08847   0.14579
C    -2.77562  -0.02814   1.08723
C    -4.04744  -0.50615   0.75750
C    -4.29742  -1.05730  -0.50675
C    -3.26067  -1.11737  -1.44048
C    -1.98758  -0.63890  -1.12129
N     0.00256   1.00673   1.51971
O     1.22641   1.26355   1.79123
C     2.26293   0.29461   0.22854
C     2.88713  -0.74406   1.14927
O     2.20983  -1.78358   1.37296
O     4.01320  -0.46255   1.63584
H     0.97472  -1.09524  -0.75315
H    -2.62069   0.38671   2.08568
H    -4.87623  -0.46534   1.49047
H    -5.29316  -1.44130  -0.77089
H    -3.43468  -1.54024  -2.43336
H    -1.18809  -0.66295  -1.85316
H     2.88205   1.18276   0.01500
24

O     0.56903   0.25779  -2.91851
C     0.96107   0.85314  -1.88131
O     1.21888   2.07700  -1.77536
C     1.11418  -0.00368  -0.58653
C    -0.31145   0.35109   0.42691
C    -1.70760  -0.08855   0.14356
C    -2.76983  -0.02713   1.08565
C    -4.04327  -0.50450   0.75768
C    -4.29644  -1.05644  -0.50581
C    -3.26067  -1.11723  -1.44040
C    -1.98686  -0.63968  -1.12230
N    -0.00733   1.00906   1.52685
O     1.23499   1.25360   1.77471
C     2.25134   0.30188   0.24101
C     2.88556  -0.74327   1.15130
O     2.20995  -1.78415   1.37213
O     4.01303  -0.46204   1.63375
H     0.97535  -1.09580  -0.75318
H    -2.61885   0.38687   2.08527
H    -4.87465  -0.46459   1.49095
H    -5.29305  -1.44095  -0.77013
H    -3.43493  -1.54023  -2.43330
H    -1.18835  -0.66378  -1.85394
H     2.88082   1.18304   0.01475
24

O     0.57153   0.25661  -2.91713
C     0.95710   0.85422  -1.87937
O     1.21997   2.07690  -1.77527
C     1.09080   0.00203  -0.57179
C    -0.29316   0.34392   0.41244
C    -1.70106  -0.08862   0.14133
C    -2.76404  -0.02612   1.08408
C    -4.03909  -0.50285   0.75787
C    -4.29547  -1.05558  -0.50488
C    -3.26067  -1.11709  -1.44031
C    -1.98613  -0.64047  -1.12331
N    -0.01723   1.01140   1.53398
O     1.24358   1.24365   1.75818
C     2.23975   0.30915   0.25348
C     2.88398  -0.74248   1.15333
O     2.21007  -1.78471   1.37129
O     4.01287  -0.46154   1.63166
H     0.97597  -1.09636  -0.75320
H    -2.61700   0.38704   2.08485
H    -4.87308  -0.46383   1.49142
H    -5.29294  -1.44060  -0.76937
H    -3.43518  -1.54022  -2.43323
H    -1.18862  -0.66461  -1.85472
H     2.87959   1.18333   0.01450
