12

N 4.023488968 0.095154287 -1.432189471
C 1.726707899 0.211751201 -0.286678048
O 1.583840220 0.536111069 2.048318725
N -0.279107409 -0.014926021 -1.831660831
C -2.464552844 -1.234552710 -0.641020178
C -2.547202756 0.698751084 1.261894666
H 4.095201069 0.017256903 -3.321939142
H 5.523625866 0.745716183 -0.477857351
H -4.018832720 -1.209687486 -1.988372606
H -2.135977092 -3.143737761 0.068588857
H -3.066312053 2.580752065 0.656508166
H -2.341131826 0.371833170 3.261638624

