11

C -3.572068300 0.784472709 0.122207681
N -0.986669360 -0.078366357 0.055116092
C 0.728600046 1.571167641 -0.133016102
N 3.301756829 1.057322081 -0.229126723
N 3.792879452 -1.265515646 -0.123423607
C 4.359405909 -3.361564337 -0.091291819
H -4.622544810 -0.052896552 -1.446035192
H -3.763071820 2.849304371 0.008475063
H -4.472304629 0.140883183 1.865439270
H 0.370801323 3.603825809 -0.242175924
H 4.904808213 -5.272740119 0.207315504

