13

C 1.222320475 1.233592729 2.283068895
O 1.567341512 -1.460818444 2.173179582
C 1.318404129 -2.405826430 -0.213503355
C -1.934992341 -1.359103255 -1.415243863
O -2.733871395 0.541335481 0.216855332
C -0.285767767 1.782398109 -0.050356723
C 0.562784175 -0.247175761 -1.953980725
H 3.060293918 2.184246480 2.279784210
H 0.197849091 1.688013054 4.010831601
H -0.845334154 -3.494336494 -0.298212559
H -3.283208222 -2.296917601 -2.645515021
H -0.465407362 3.741548387 -0.643860512
H 1.474953993 0.103955006 -3.747466915

