16

C 3.732951985 1.553964443 -1.618409660
C 1.539610764 -0.652491307 1.833961006
C -1.259098023 -1.243332359 1.889841757
C -1.645245585 -2.173081619 -0.876330708
C -0.801965809 0.570937020 -1.405024772
C -2.341281303 1.327186140 0.955410077
N 1.828089135 0.539721787 -0.356877160
H 3.353957811 2.421430673 -3.417646892
H 5.600553480 1.486272318 -0.808274225
H 3.046451655 -1.071144502 3.129922880
H -2.013802216 -2.241283346 3.516203932
H -0.428505282 -3.685187268 -1.562039810
H -3.614227126 -2.485685708 -1.398780663
H -0.895149602 1.508777029 -3.228802421
H -1.764446731 3.032184771 1.953900827
H -4.368720236 1.309576784 0.585830557

