16

C 3.553715298 1.872226902 -0.812861138
C 1.720796854 -0.980870131 1.290063585
C -1.066066808 -1.024880038 1.874638986
C -1.935366488 -2.311030284 -0.655770133
C -0.886018427 0.144065123 -1.789617411
C -1.941532645 1.483323930 0.603401495
N 1.839284497 -0.106122389 -1.096061278
H 5.082639151 2.063565224 -2.156967338
H 3.327486830 3.216158755 0.704856449
H 3.296362644 -1.873291668 2.211126643
H -1.720291334 -1.641974431 3.718254300
H -1.048272674 -4.083751691 -1.215023166
H -3.986431703 -2.417217585 -0.776538542
H -1.200439412 0.782999610 -3.714026000
H -1.042500392 3.240090304 1.187127690
H -3.989136165 1.693991675 0.564205324

