18

C 3.962596833 -0.480364318 1.316706191
C 1.681652312 0.247575571 -0.272642523
C -0.153473578 2.074905093 1.100979271
C -2.574287407 1.539810017 -0.312321688
C -2.620524073 -1.110970593 -0.904544187
C 0.082469859 -2.058990538 -1.126043729
H 3.372101109 -1.492666622 3.017948519
H 5.022709888 1.189249097 1.907743076
H 5.245658907 -1.707427382 0.263973518
H 2.342631664 1.226770459 -1.968506482
H 0.485472493 4.032075203 1.004898716
H -0.314837008 1.546538424 3.093392357
H -5.468014514 1.041105510 -0.647861251
H -3.102941503 2.940728773 -1.697577619
H -3.890669491 -2.371474799 0.076586820
H -5.192868501 -0.281973027 -1.961002739
H 0.404265141 -3.702181310 0.088313913
H 0.561140718 -2.628023054 -3.050719790

