12

C -2.835822573 -0.586185542 -0.943890628
C -1.177130283 -0.549022150 1.140918123
O -1.982677539 -2.039211568 2.867381359
C 1.140048697 0.938081818 1.586889123
C 3.230944634 0.682629132 -0.224701645
O 1.686380973 2.843837960 -0.203617555
H -2.996156708 1.002477032 -2.224225677
H -2.867973920 -2.426812367 -1.867270339
H -3.818829247 -1.899389598 1.333991819
H 1.558619236 1.398979236 3.540640510
H 2.996597543 -0.554390711 -1.844693025
H 5.144730827 0.943586099 0.466544052

