17

C -3.509399274 0.594846799 -0.015526972
C -1.428816783 -1.296891317 -0.864484677
C -0.202007376 0.202518509 -2.878684207
C 2.177466312 1.407223922 -2.058221117
C 2.809850423 1.563619980 0.707196346
C 1.881487939 -0.114682187 2.317981906
C 0.196549602 -2.189037257 1.373936245
H -4.758683987 1.076570983 -1.576976697
H -4.614712103 -0.299157913 1.477397560
H -2.699911392 2.331336525 0.745929987
H -2.422429563 -2.905561895 -1.696100534
H 1.351939663 -3.795870039 0.758608273
H 2.538505102 3.161902451 -3.082827522
H 3.444208164 0.036448754 -3.028633579
H 4.017197313 3.092319579 1.344997376
H 2.316819630 -0.005564128 4.317520885
H -1.012449627 -2.906485461 2.887640357

