10

N 1.619702592 2.636604735 -0.227814705
C 1.659465736 0.281645821 0.173129923
C 3.862769839 -1.335359754 0.246241821
H 5.856119890 -0.978338370 -0.003165291
O 3.145529372 -3.579415895 0.697743879
N 0.568184559 -3.932322475 0.996413449
C -0.437673005 -1.565971480 0.682581397
N -2.738573317 -0.860616861 0.772579188
H -3.904561718 -2.346462044 1.135751857
H -0.217003185 3.244642559 -0.163611203

