12

N 0.844920077 3.062500116 0.100458521
C 1.237656472 0.637753900 0.371923934
C 3.257730632 -0.880980984 -0.401374144
O 2.677291861 -3.231417821 -0.044082700
N 0.206371132 -3.578202653 0.736937517
C -0.690088126 -1.235166815 1.035488431
N -3.006332146 -0.428353461 1.402715111
H -2.130539027 2.764497639 -1.425260621
H -0.459191071 3.643184098 1.389184426
H 5.167420844 -0.455695569 -0.973745599
H -3.044774013 1.684902848 -0.609038472
H -4.304632480 -1.822145115 1.138758903

