14

O 2.518805709 0.920859667 2.625789511
C 1.461980928 -0.058975707 0.446525521
C 0.485573272 2.452517537 -2.514792290
C -1.102779160 1.467960116 -0.607818427
C -2.389854975 -1.103610450 -0.888427620
C -0.351575571 -2.295277073 0.804374851
H 4.084302282 1.742015210 2.232917075
H 1.400489146 4.143221523 -1.686433149
H 2.858083358 -0.426287386 -1.025085243
H -1.764309102 2.587482514 0.995354503
H -4.320139365 -1.232627212 -0.190319212
H -2.303463084 -1.755677325 -2.838715668
H -0.933908263 -2.347061144 2.779973815
H 0.408682924 -4.132701418 0.269315415

