14

O 2.258391188 1.411548258 2.693194908
C 1.217623353 0.279468176 0.585069828
C 0.795007459 1.932707737 -2.521959530
C -1.153602361 1.475928430 -0.597723850
C -2.464464102 -1.108089479 -0.733254025
C -0.171202951 -2.282971328 0.648565684
H 4.002308577 0.939245473 2.839097355
H 1.725359334 3.713083783 -1.963001105
H 2.594101185 0.208445012 -1.159304345
H -1.991089428 3.027059456 0.451733966
H -4.230636852 -1.248336108 0.313924422
H -2.741672279 -1.762224338 -2.664237501
H -0.596260371 -2.764702731 2.604723355
H 0.792503138 -3.862097588 -0.255889081

