15

C -4.427090513 0.228937882 -0.338260164
C -1.790293876 1.056113942 0.283350089
O -0.775516106 -0.116563107 2.640182213
C 1.694889144 0.207174398 1.579788307
C 3.755259484 -1.391099172 0.668038670
C 0.462776164 -0.371369791 -0.895173035
O 3.189131004 0.253535842 -2.341735745
H -4.494791463 -1.819967678 -0.526919327
H -5.755139691 0.828535472 1.123511156
H -5.009871845 1.082930138 -2.125332888
H -1.622725965 3.117087803 0.482909666
H 2.351196980 2.141194796 1.953716333
H 5.708513609 -0.744758659 0.744844415
H 3.445004910 -3.401019985 0.475934743
H 3.195595682 -0.955509628 -3.702453620

