13

C -4.064031322 -2.084374643 -1.870476675
C -1.849180312 -1.268301802 -0.204526873
C 0.022532679 0.255271197 -1.658772660
N 2.326498297 -0.349715192 -1.839516857
C 3.918835160 1.090413416 -3.372136769
O 3.575581773 1.496000742 -5.577577188
H 5.628180331 1.735854249 -2.368778991
H -0.696433127 1.956159522 -2.605363405
H -2.555008005 -0.099987753 1.351703976
H -0.887692082 -2.894662258 0.617550819
H -3.424285424 -3.309042801 -3.400690568
H -5.457329341 -3.121016261 -0.762488863
H -5.010611805 -0.456460133 -2.714486755

