16

N 4.811449657 0.782049456 -0.460520077
C 2.247580688 0.302912251 -0.172150800
C 1.220820354 -1.873075162 0.598987737
C -1.587723531 -2.227998005 0.816671809
C -2.954765677 -0.048578698 -0.484599780
C -1.636650657 2.414420432 0.148957586
O 0.908362964 2.417167413 -0.720662780
H 5.155114834 2.264650320 -1.603556904
H 5.841309067 -0.747081737 -0.922831463
H 2.473839109 -3.422462915 1.061402397
H -2.170645705 -2.334857047 2.802675265
H -2.156307389 -4.020267721 -0.041327592
H -2.920332637 -0.305994715 -2.534784723
H -4.932971481 0.058641679 0.094979752
H -1.632246802 2.726805086 2.197627762
H -2.526845662 4.032494873 -0.761354895

