15

C -3.653326580 -1.418877806 -0.234175976
C -1.224157610 -1.448325881 1.338353817
C 0.669307583 0.364852617 0.409525855
C 0.768025912 3.138645723 -0.113429148
O 3.349114462 2.864362427 -0.925303150
C 3.121636015 0.228848971 -0.394378869
C 4.776436093 -1.783330783 -0.636736434
H -5.001996166 -2.786766398 0.509950739
H -3.261517398 -1.910791998 -2.197311328
H -4.552120103 0.437638820 -0.203124356
H -1.674708116 -0.969516467 3.302321139
H -0.359278907 -3.320096262 1.344063605
H -0.458958993 3.803136262 -1.635787166
H 0.594444457 4.366167538 1.538053989
H 6.596233753 -1.104613592 -1.387371725

