15

C -4.622123949 -0.301057522 0.277914538
C -1.820958840 0.073304612 0.124506344
C -0.629133328 2.276879494 -0.548402754
N 1.899178270 1.945875084 -0.570017045
C 2.370185798 -0.600072893 0.051327399
N 4.810497991 -1.244448431 0.930581136
C 0.015908508 -1.841055075 0.714568130
H -5.275708160 -1.598526075 -1.188245331
H -5.142866877 -1.127902539 2.093265105
H -5.647463342 1.477158453 0.062406467
H -1.439849646 4.070722955 -1.109455638
H 3.214990772 3.279991115 -0.858890653
H 4.684789630 -2.761850132 2.079232282
H 6.056511777 -1.607902518 -0.466627143
H 1.628957790 -1.873605514 -1.644744468

