18

C     2.96892  -0.90178  -0.66613
N     1.81962  -0.06561  -0.93431
C     0.86473   0.15705  -0.00914
O     0.97460  -0.23049   1.16983
N    -0.24448   0.83642  -0.57360
C    -1.48970  -0.86907  -0.92574
C    -2.32105  -0.77834   0.21955
N    -1.64742   0.46306   1.22221
O    -1.10739   1.37237   0.35520
H     3.73452  -0.37208  -0.07871
H     3.40853  -1.21557  -1.61870
H     2.66129  -1.79431  -0.10180
H     1.73581   0.41766  -1.82513
H    -0.72306  -1.69103  -0.99402
H    -1.83180  -0.50546  -1.90314
H    -3.37483  -0.45623   0.05641
H    -2.27541  -1.66215   0.94777
H    -0.78801  -0.03336   1.54233
18

C     2.96825  -0.90158  -0.66612
N     1.81885  -0.06539  -0.93446
C     0.86550   0.15908  -0.00832
O     0.97185  -0.23376   1.16886
N    -0.23430   0.85326  -0.56742
C    -1.50045  -0.88705  -0.93125
C    -2.33199  -0.80147   0.20731
N    -1.63534   0.48438   1.23361
O    -1.10518   1.37509   0.35498
H     3.73425  -0.37198  -0.07865
H     3.40835  -1.21547  -1.61869
H     2.66103  -1.79424  -0.10183
H     1.73628   0.41862  -1.82474
H    -0.72423  -1.69383  -0.99489
H    -1.83221  -0.50701  -1.90343
H    -3.37575  -0.45854   0.05583
H    -2.27644  -1.66496   0.94703
H    -0.78764  -0.03176   1.54254
18

C     2.96758  -0.90138  -0.66612
N     1.81808  -0.06517  -0.93461
C     0.86627   0.16112  -0.00751
O     0.96910  -0.23703   1.16790
N    -0.22412   0.87010  -0.56124
C    -1.51120  -0.90503  -0.93675
C    -2.34294  -0.82460   0.19508
N    -1.62325   0.50569   1.24501
O    -1.10298   1.37780   0.35476
H     3.73399  -0.37188  -0.07859
H     3.40817  -1.21538  -1.61869
H     2.66076  -1.79416  -0.10186
H     1.73675   0.41959  -1.82436
H    -0.72540  -1.69663  -0.99575
H    -1.83261  -0.50857  -1.90372
H    -3.37666  -0.46085   0.05524
H    -2.27747  -1.66777   0.94629
H    -0.78727  -0.03016   1.54276
18

C     2.96691  -0.90119  -0.66612
N     1.81732  -0.06495  -0.93476
C     0.86704   0.16315  -0.00669
O     0.96635  -0.24030   1.16693
N    -0.21395   0.88695  -0.55507
C    -1.52196  -0.92300  -0.94226
C    -2.35388  -0.84773   0.18284
N    -1.61117   0.52700   1.25641
O    -1.10078   1.38051   0.35455
H     3.73372  -0.37178  -0.07853
H     3.40799  -1.21528  -1.61868
H     2.66050  -1.79409  -0.10189
H     1.73721   0.42055  -1.82397
H    -0.72656  -1.69942  -0.99661
H    -1.83301  -0.51013  -1.90402
H    -3.37758  -0.46315   0.05466
H    -2.27850  -1.67058   0.94555
H    -0.78689  -0.02857   1.54297
18

C     2.96623  -0.90099  -0.66612
N     1.81655  -0.06472  -0.93491
C     0.86781   0.16518  -0.00587
O     0.96360  -0.24357   1.16597
N    -0.20377   0.90379  -0.54889
C    -1.53271  -0.94098  -0.94776
C    -2.36483  -0.87085   0.17061
N    -1.59909   0.54831   1.26781
O    -1.09857   1.38322   0.35433
H     3.73346  -0.37168  -0.07847
H     3.40781  -1.21519  -1.61868
H     2.66023  -1.79401  -0.10192
H     1.73768   0.42152  -1.82359
H    -0.72773  -1.70222  -0.99748
H    -1.83341  -0.51168  -1.90431
H    -3.37850  -0.46546   0.05407
H    -2.27953  -1.67339   0.94481
H    -0.78652  -0.02697   1.54318
18

C     2.96556  -0.90080  -0.66611
N     1.81578  -0.06450  -0.93506
C     0.86858   0.16721  -0.00506
O     0.96085  -0.24683   1.16500
N    -0.19359   0.92063  -0.54271
C    -1.54346  -0.95896  -0.95327
C    -2.37578  -0.89398   0.15837
N    -1.58700   0.56962   1.27921
O    -1.09637   1.38594   0.35412
H     3.73320  -0.37159  -0.07841
H     3.40763  -1.21509  -1.61868
H     2.65997  -1.79394  -0.10195
H     1.73815   0.42248  -1.82321
H    -0.72889  -1.70502  -0.99834
H    -1.83382  -0.51324  -1.90460
H    -3.37941  -0.46777   0.05349
H    -2.28056  -1.67620   0.94407
H    -0.78614  -0.02537   1.54339
18

C     2.96489  -0.90060  -0.66611
N     1.81501  -0.06428  -0.93521
C     0.86935   0.16925  -0.00424
O     0.95810  -0.25010   1.16404
N    -0.18341   0.93747  -0.53654
C    -1.55421  -0.97693  -0.95878
C    -2.38672  -0.91711   0.14614
N    -1.57492   0.59093   1.29062
O    -1.09417   1.38865   0.35390
H     3.73293  -0.37149  -0.07835
H     3.40745  -1.21500  -1.61867
H     2.65970  -1.79386  -0.10198
H     1.73862   0.42344  -1.82282
H    -0.73006  -1.70782  -0.99920
H    -1.83422  -0.51479  -1.90490
H    -3.38033  -0.47007   0.05291
H    -2.28159  -1.67901   0.94334
H    -0.78577  -0.02378   1.54361
18

C     2.96422  -0.90040  -0.66611
N     1.81424  -0.06405  -0.93536
C     0.87011   0.17128  -0.00342
O     0.95534  -0.25337   1.16307
N    -0.17323   0.95431  -0.53036
C    -1.56497  -0.99491  -0.96428
C    -2.39767  -0.94024   0.13390
N    -1.56283   0.61224   1.30202
O    -1.09197   1.39136   0.35369
H     3.73267  -0.37139  -0.07829
H     3.40728  -1.21490  -1.61867
H     2.65944  -1.79379  -0.10201
H     1.73909   0.42441  -1.82244
H    -0.73123  -1.71061  -1.00007
H    -1.83462  -0.51635  -1.90519
H    -3.38125  -0.47238   0.05232
H    -2.28262  -1.68182   0.94260
H    -0.78539  -0.02218   1.54382
18

C     2.96354  -0.90021  -0.66611
N     1.81348  -0.06383  -0.93551
C     0.87088   0.17331  -0.00260
O     0.95259  -0.25664   1.16211
N    -0.16305   0.97116  -0.52418
C    -1.57572  -1.01289  -0.96979
C    -2.40861  -0.96337   0.12167
N    -1.55075   0.63356   1.31342
O    -1.08976   1.39408   0.35347
H     3.73240  -0.37129  -0.07823
H     3.40710  -1.21480  -1.61867
H     2.65917  -1.79371  -0.10205
H     1.73956   0.42537  -1.82206
H    -0.73239  -1.71341  -1.00093
H    -1.83503  -0.51791  -1.90548
H    -3.38217  -0.47469   0.05174
H    -2.28365  -1.68463   0.94186
H    -0.78502  -0.02058   1.54403
18

C     2.96287  -0.90001  -0.66611
N     1.81271  -0.06361  -0.93566
C     0.87165   0.17534  -0.00179
O     0.94984  -0.25991   1.16114
N    -0.15287   0.98800  -0.51801
C    -1.58647  -1.03086  -0.97529
C    -2.41956  -0.98650   0.10943
N    -1.53866   0.65487   1.32482
O    -1.08756   1.39679   0.35326
H     3.73214  -0.37119  -0.07817
H     3.40692  -1.21471  -1.61866
H     2.65891  -1.79364  -0.10208
H     1.74003   0.42634  -1.82167
H    -0.73356  -1.71621  -1.00179
H    -1.83543  -0.51946  -1.90578
H    -3.38308  -0.47699   0.05115
H    -2.28468  -1.68744   0.94112
H    -0.78465  -0.01898   1.54424
18

C     2.96220  -0.89981  -0.66610
N     1.81194  -0.06339  -0.93581
C     0.87242   0.17737  -0.00097
O     0.94709  -0.26318   1.16018
N    -0.14269   1.00484  -0.51183
C    -1.59722  -1.04884  -0.98080
C    -2.43050  -1.00963   0.09720
N    -1.52658   0.67618   1.33622
O    -1.08536   1.39950   0.35304
H     3.73187  -0.37109  -0.07811
H     3.40674  -1.21461  -1.61866
H     2.65864  -1.79356  -0.10211
H     1.74049   0.42730  -1.82129
H    -0.73473  -1.71901  -1.00266
H    -1.83583  -0.52102  -1.90607
H    -3.38400  -0.47930   0.05057
H    -2.28572  -1.69025   0.94038
H    -0.78427  -0.01739   1.54446
18

C     2.96152  -0.89962  -0.66610
N     1.81117  -0.06316  -0.93596
C     0.87319   0.17941  -0.00015
O     0.94434  -0.26645   1.15921
N    -0.13251   1.02168  -0.50565
C    -1.60797  -1.06682  -0.98631
C    -2.44145  -1.03276   0.08496
N    -1.51449   0.69749   1.34762
O    -1.08315   1.40221   0.35282
H     3.73161  -0.37100  -0.07805
H     3.40656  -1.21452  -1.61866
H     2.65838  -1.79349  -0.10214
H     1.74096   0.42827  -1.82091
H    -0.73589  -1.72180  -1.00352
H    -1.83623  -0.52257  -1.90636
H    -3.38492  -0.48161   0.04999
H    -2.28675  -1.69306   0.93964
H    -0.78390  -0.01579   1.54467
18

C     2.96085  -0.89942  -0.66610
N     1.81040  -0.06294  -0.93611
C     0.87396   0.18144   0.00066
O     0.94159  -0.26972   1.15825
N    -0.12233   1.03853  -0.49948
C    -1.61873  -1.08479  -0.99181
C    -2.45240  -1.05589   0.07273
N    -1.50241   0.71880   1.35902
O    -1.08095   1.40493   0.35261
H     3.73134  -0.37090  -0.07799
H     3.40638  -1.21442  -1.61865
H     2.65811  -1.79341  -0.10217
H     1.74143   0.42923  -1.82052
H    -0.73706  -1.72460  -1.00439
H    -1.83664  -0.52413  -1.90665
H    -3.38583  -0.48391   0.04940
H    -2.28778  -1.69587   0.93890
H    -0.78352  -0.01419   1.54488
18

C     2.96018  -0.89923  -0.66610
N     1.80964  -0.06272  -0.93626
C     0.87473   0.18347   0.00148
O     0.93884  -0.27299   1.15728
N    -0.11216   1.05537  -0.49330
C    -1.62948  -1.10277  -0.99732
C    -2.46334  -1.07902   0.06049
N    -1.49033   0.74011   1.37042
O    -1.07875   1.40764   0.35239
H     3.73108  -0.37080  -0.07793
H     3.40620  -1.21432  -1.61865
H     2.65785  -1.79334  -0.10220
H     1.74190   0.43020  -1.82014
H    -0.73823  -1.72740  -1.00525
H    -1.83704  -0.52568  -1.90695
H    -3.38675  -0.48622   0.04882
H    -2.28881  -1.69868   0.93817
H    -0.78315  -0.01260   1.54509
18

C     2.95951  -0.89903  -0.66609
N     1.80887  -0.06249  -0.93641
C     0.87550   0.18550   0.00230
O     0.93609  -0.27626   1.15632
N    -0.10198   1.07221  -0.48713
C    -1.64023  -1.12075  -1.00282
C    -2.47429  -1.10215   0.04826
N    -1.47824   0.76143   1.38182
O    -1.07654   1.41035   0.35218
H     3.73081  -0.37070  -0.07787
H     3.40602  -1.21423  -1.61865
H     2.65758  -1.79326  -0.10223
H     1.74237   0.43116  -1.81975
H    -0.73939  -1.73020  -1.00611
H    -1.83744  -0.52724  -1.90724
H    -3.38767  -0.48853   0.04823
H    -2.28984  -1.70149   0.93743
H    -0.78278  -0.01100   1.54531
18

C     2.95883  -0.89883  -0.66609
N     1.80810  -0.06227  -0.93656
C     0.87627   0.18754   0.00312
O     0.93334  -0.27953   1.15535
N    -0.09180   1.08905  -0.48095
C    -1.65098  -1.13872  -1.00833
C    -2.48523  -1.12528   0.03602
N    -1.46616   0.78274   1.39322
O    -1.07434   1.41307   0.35196
H     3.73055  -0.37060  -0.07781
H     3.40584  -1.21413  -1.61864
H     2.65732  -1.79319  -0.10226
H     1.74284   0.43213  -1.81937
H    -0.74056  -1.73299  -1.00698
H    -1.83785  -0.52880  -1.90753
H    -3.38858  -0.49083   0.04765
H    -2.29087  -1.70430   0.93669
H    -0.78240  -0.00940   1.54552
18

C     2.95816  -0.89864  -0.66609
N     1.80733  -0.06205  -0.93671
C     0.87704   0.18957   0.00393
O     0.93059  -0.28280   1.15439
N    -0.08162   1.10589  -0.47477
C    -1.66174  -1.15670  -1.01383
C    -2.49618  -1.14841   0.02379
N    -1.45407   0.80405   1.40462
O    -1.07214   1.41578   0.35175
H     3.73029  -0.37050  -0.07775
H     3.40566  -1.21404  -1.61864
H     2.65705  -1.79311  -0.10230
H     1.74330   0.43309  -1.81899
H    -0.74173  -1.73579  -1.00784
H    -1.83825  -0.53035  -1.90783
H    -3.38950  -0.49314   0.04707
H    -2.29190  -1.70711   0.93595
H    -0.78203  -0.00781   1.54573
18

C     2.95749  -0.89844  -0.66609
N     1.80656  -0.06182  -0.93686
C     0.87781   0.19160   0.00475
O     0.92784  -0.28607   1.15342
N    -0.07144   1.12274  -0.46860
C    -1.67249  -1.17468  -1.01934
C    -2.50712  -1.17154   0.01155
N    -1.44199   0.82536   1.41602
O    -1.06993   1.41849   0.35153
H     3.73002  -0.37041  -0.07769
H     3.40548  -1.21394  -1.61864
H     2.65679  -1.79304  -0.10233
H     1.74377   0.43406  -1.81860
H    -0.74289  -1.73859  -1.00870
H    -1.83865  -0.53191  -1.90812
H    -3.39042  -0.49545   0.04648
H    -2.29293  -1.70992   0.93521
H    -0.78165  -0.00621   1.54594
18

C     2.95681  -0.89824  -0.66609
N     1.80579  -0.06160  -0.93701
C     0.87858   0.19363   0.00557
O     0.92509  -0.28934   1.15246
N    -0.06126   1.13958  -0.46242
C    -1.68324  -1.19265  -1.02485
C    -2.51807  -1.19466  -0.00068
N    -1.42990   0.84667   1.42743
O    -1.06773   1.42121   0.35132
H     3.72976  -0.37031  -0.07763
H     3.40530  -1.21385  -1.61863
H     2.65652  -1.79296  -0.10236
H     1.74424   0.43502  -1.81822
H    -0.74406  -1.74139  -1.00957
H    -1.83905  -0.53346  -1.90841
H    -3.39133  -0.49775   0.04590
H    -2.29396  -1.71273   0.93447
H    -0.78128  -0.00461   1.54616
18

C     2.95614  -0.89805  -0.66608
N     1.80503  -0.06138  -0.93716
C     0.87935   0.19567   0.00638
O     0.92234  -0.29260   1.15149
N    -0.05108   1.15642  -0.45624
C    -1.69399  -1.21063  -1.03035
C    -2.52902  -1.21779  -0.01292
N    -1.41782   0.86798   1.43883
O    -1.06553   1.42392   0.35110
H     3.72949  -0.37021  -0.07757
H     3.40512  -1.21375  -1.61863
H     2.65626  -1.79289  -0.10239
H     1.74471   0.43598  -1.81784
H    -0.74523  -1.74418  -1.01043
H    -1.83946  -0.53502  -1.90870
H    -3.39225  -0.50006   0.04531
H    -2.29499  -1.71554   0.93373
H    -0.78090  -0.00302   1.54637
18

C     2.95547  -0.89785  -0.66608
N     1.80426  -0.06116  -0.93731
C     0.88012   0.19770   0.00720
O     0.91959  -0.29587   1.15053
N    -0.04090   1.17326  -0.45007
C    -1.70475  -1.22861  -1.03586
C    -2.53996  -1.24092  -0.02515
N    -1.40574   0.88930   1.45023
O    -1.06333   1.42663   0.35088
H     3.72923  -0.37011  -0.07751
H     3.40494  -1.21365  -1.61863
H     2.65599  -1.79281  -0.10242
H     1.74518   0.43695  -1.81745
H    -0.74639  -1.74698  -1.01129
H    -1.83986  -0.53658  -1.90900
H    -3.39317  -0.50237   0.04473
H    -2.29602  -1.71835   0.93300
H    -0.78053  -0.00142   1.54658
18

C     2.95614  -0.89805  -0.66608
N     1.80503  -0.06138  -0.93716
C     0.87935   0.19567   0.00638
O     0.92234  -0.29260   1.15149
N    -0.05108   1.15642  -0.45624
C    -1.69399  -1.21063  -1.03035
C    -2.52902  -1.21779  -0.01292
N    -1.41782   0.86798   1.43883
O    -1.06553   1.42392   0.35110
H     3.72949  -0.37021  -0.07757
H     3.40512  -1.21375  -1.61863
H     2.65626  -1.79289  -0.10239
H     1.74471   0.43598  -1.81784
H    -0.74523  -1.74418  -1.01043
H    -1.83946  -0.53502  -1.90870
H    -3.39225  -0.50006   0.04531
H    -2.29499  -1.71554   0.93373
H    -0.78090  -0.00302   1.54637
18

C     2.95681  -0.89824  -0.66609
N     1.80579  -0.06160  -0.93701
C     0.87858   0.19363   0.00557
O     0.92509  -0.28934   1.15246
N    -0.06126   1.13958  -0.46242
C    -1.68324  -1.19265  -1.02485
C    -2.51807  -1.19466  -0.00068
N    -1.42990   0.84667   1.42743
O    -1.06773   1.42121   0.35132
H     3.72976  -0.37031  -0.07763
H     3.40530  -1.21385  -1.61863
H     2.65652  -1.79296  -0.10236
H     1.74424   0.43502  -1.81822
H    -0.74406  -1.74139  -1.00957
H    -1.83905  -0.53346  -1.90841
H    -3.39133  -0.49775   0.04590
H    -2.29396  -1.71273   0.93447
H    -0.78128  -0.00461   1.54616
18

C     2.95749  -0.89844  -0.66609
N     1.80656  -0.06182  -0.93686
C     0.87781   0.19160   0.00475
O     0.92784  -0.28607   1.15342
N    -0.07144   1.12274  -0.46860
C    -1.67249  -1.17468  -1.01934
C    -2.50712  -1.17154   0.01155
N    -1.44199   0.82536   1.41602
O    -1.06993   1.41849   0.35153
H     3.73002  -0.37041  -0.07769
H     3.40548  -1.21394  -1.61864
H     2.65679  -1.79304  -0.10233
H     1.74377   0.43406  -1.81860
H    -0.74289  -1.73859  -1.00870
H    -1.83865  -0.53191  -1.90812
H    -3.39042  -0.49545   0.04648
H    -2.29293  -1.70992   0.93521
H    -0.78165  -0.00621   1.54594
18

C     2.95816  -0.89864  -0.66609
N     1.80733  -0.06205  -0.93671
C     0.87704   0.18957   0.00393
O     0.93059  -0.28280   1.15439
N    -0.08162   1.10589  -0.47477
C    -1.66174  -1.15670  -1.01383
C    -2.49618  -1.14841   0.02379
N    -1.45407   0.80405   1.40462
O    -1.07214   1.41578   0.35175
H     3.73029  -0.37050  -0.07775
H     3.40566  -1.21404  -1.61864
H     2.65705  -1.79311  -0.10230
H     1.74330   0.43309  -1.81899
H    -0.74173  -1.73579  -1.00784
H    -1.83825  -0.53035  -1.90783
H    -3.38950  -0.49314   0.04707
H    -2.29190  -1.70711   0.93595
H    -0.78203  -0.00781   1.54573
18

C     2.95883  -0.89883  -0.66609
N     1.80810  -0.06227  -0.93656
C     0.87627   0.18754   0.00312
O     0.93334  -0.27953   1.15535
N    -0.09180   1.08905  -0.48095
C    -1.65098  -1.13872  -1.00833
C    -2.48523  -1.12528   0.03602
N    -1.46616   0.78274   1.39322
O    -1.07434   1.41307   0.35196
H     3.73055  -0.37060  -0.07781
H     3.40584  -1.21413  -1.61864
H     2.65732  -1.79319  -0.10226
H     1.74284   0.43213  -1.81937
H    -0.74056  -1.73299  -1.00698
H    -1.83785  -0.52880  -1.90753
H    -3.38858  -0.49083   0.04765
H    -2.29087  -1.70430   0.93669
H    -0.78240  -0.00940   1.54552
18

C     2.95951  -0.89903  -0.66609
N     1.80887  -0.06249  -0.93641
C     0.87550   0.18550   0.00230
O     0.93609  -0.27626   1.15632
N    -0.10198   1.07221  -0.48713
C    -1.64023  -1.12075  -1.00282
C    -2.47429  -1.10215   0.04826
N    -1.47824   0.76143   1.38182
O    -1.07654   1.41035   0.35218
H     3.73081  -0.37070  -0.07787
H     3.40602  -1.21423  -1.61865
H     2.65758  -1.79326  -0.10223
H     1.74237   0.43116  -1.81975
H    -0.73939  -1.73020  -1.00611
H    -1.83744  -0.52724  -1.90724
H    -3.38767  -0.48853   0.04823
H    -2.28984  -1.70149   0.93743
H    -0.78278  -0.01100   1.54531
18

C     2.96018  -0.89923  -0.66610
N     1.80964  -0.06272  -0.93626
C     0.87473   0.18347   0.00148
O     0.93884  -0.27299   1.15728
N    -0.11216   1.05537  -0.49330
C    -1.62948  -1.10277  -0.99732
C    -2.46334  -1.07902   0.06049
N    -1.49033   0.74011   1.37042
O    -1.07875   1.40764   0.35239
H     3.73108  -0.37080  -0.07793
H     3.40620  -1.21432  -1.61865
H     2.65785  -1.79334  -0.10220
H     1.74190   0.43020  -1.82014
H    -0.73823  -1.72740  -1.00525
H    -1.83704  -0.52568  -1.90695
H    -3.38675  -0.48622   0.04882
H    -2.28881  -1.69868   0.93817
H    -0.78315  -0.01260   1.54509
18

C     2.96085  -0.89942  -0.66610
N     1.81040  -0.06294  -0.93611
C     0.87396   0.18144   0.00066
O     0.94159  -0.26972   1.15825
N    -0.12233   1.03853  -0.49948
C    -1.61873  -1.08479  -0.99181
C    -2.45240  -1.05589   0.07273
N    -1.50241   0.71880   1.35902
O    -1.08095   1.40493   0.35261
H     3.73134  -0.37090  -0.07799
H     3.40638  -1.21442  -1.61865
H     2.65811  -1.79341  -0.10217
H     1.74143   0.42923  -1.82052
H    -0.73706  -1.72460  -1.00439
H    -1.83664  -0.52413  -1.90665
H    -3.38583  -0.48391   0.04940
H    -2.28778  -1.69587   0.93890
H    -0.78352  -0.01419   1.54488
18

C     2.96152  -0.89962  -0.66610
N     1.81117  -0.06316  -0.93596
C     0.87319   0.17941  -0.00015
O     0.94434  -0.26645   1.15921
N    -0.13251   1.02168  -0.50565
C    -1.60797  -1.06682  -0.98631
C    -2.44145  -1.03276   0.08496
N    -1.51449   0.69749   1.34762
O    -1.08315   1.40221   0.35282
H     3.73161  -0.37100  -0.07805
H     3.40656  -1.21452  -1.61866
H     2.65838  -1.79349  -0.10214
H     1.74096   0.42827  -1.82091
H    -0.73589  -1.72180  -1.00352
H    -1.83623  -0.52257  -1.90636
H    -3.38492  -0.48161   0.04999
H    -2.28675  -1.69306   0.93964
H    -0.78390  -0.01579   1.54467
18

C     2.96220  -0.89981  -0.66610
N     1.81194  -0.06339  -0.93581
C     0.87242   0.17737  -0.00097
O     0.94709  -0.26318   1.16018
N    -0.14269   1.00484  -0.51183
C    -1.59722  -1.04884  -0.98080
C    -2.43050  -1.00963   0.09720
N    -1.52658   0.67618   1.33622
O    -1.08536   1.39950   0.35304
H     3.73187  -0.37109  -0.07811
H     3.40674  -1.21461  -1.61866
H     2.65864  -1.79356  -0.10211
H     1.74049   0.42730  -1.82129
H    -0.73473  -1.71901  -1.00266
H    -1.83583  -0.52102  -1.90607
H    -3.38400  -0.47930   0.05057
H    -2.28572  -1.69025   0.94038
H    -0.78427  -0.01739   1.54446
18

C     2.96287  -0.90001  -0.66611
N     1.81271  -0.06361  -0.93566
C     0.87165   0.17534  -0.00179
O     0.94984  -0.25991   1.16114
N    -0.15287   0.98800  -0.51801
C    -1.58647  -1.03086  -0.97529
C    -2.41956  -0.98650   0.10943
N    -1.53866   0.65487   1.32482
O    -1.08756   1.39679   0.35326
H     3.73214  -0.37119  -0.07817
H     3.40692  -1.21471  -1.61866
H     2.65891  -1.79364  -0.10208
H     1.74003   0.42634  -1.82167
H    -0.73356  -1.71621  -1.00179
H    -1.83543  -0.51946  -1.90578
H    -3.38308  -0.47699   0.05115
H    -2.28468  -1.68744   0.94112
H    -0.78465  -0.01898   1.54424
18

C     2.96354  -0.90021  -0.66611
N     1.81348  -0.06383  -0.93551
C     0.87088   0.17331  -0.00260
O     0.95259  -0.25664   1.16211
N    -0.16305   0.97116  -0.52418
C    -1.57572  -1.01289  -0.96979
C    -2.40861  -0.96337   0.12167
N    -1.55075   0.63356   1.31342
O    -1.08976   1.39408   0.35347
H     3.73240  -0.37129  -0.07823
H     3.40710  -1.21480  -1.61867
H     2.65917  -1.79371  -0.10205
H     1.73956   0.42537  -1.82206
H    -0.73239  -1.71341  -1.00093
H    -1.83503  -0.51791  -1.90548
H    -3.38217  -0.47469   0.05174
H    -2.28365  -1.68463   0.94186
H    -0.78502  -0.02058   1.54403
18

C     2.96422  -0.90040  -0.66611
N     1.81424  -0.06405  -0.93536
C     0.87011   0.17128  -0.00342
O     0.95534  -0.25337   1.16307
N    -0.17323   0.95431  -0.53036
C    -1.56497  -0.99491  -0.96428
C    -2.39767  -0.94024   0.13390
N    -1.56283   0.61224   1.30202
O    -1.09197   1.39136   0.35369
H     3.73267  -0.37139  -0.07829
H     3.40728  -1.21490  -1.61867
H     2.65944  -1.79379  -0.10201
H     1.73909   0.42441  -1.82244
H    -0.73123  -1.71061  -1.00007
H    -1.83462  -0.51635  -1.90519
H    -3.38125  -0.47238   0.05232
H    -2.28262  -1.68182   0.94260
H    -0.78539  -0.02218   1.54382
18

C     2.96489  -0.90060  -0.66611
N     1.81501  -0.06428  -0.93521
C     0.86935   0.16925  -0.00424
O     0.95810  -0.25010   1.16404
N    -0.18341   0.93747  -0.53654
C    -1.55421  -0.97693  -0.95878
C    -2.38672  -0.91711   0.14614
N    -1.57492   0.59093   1.29062
O    -1.09417   1.38865   0.35390
H     3.73293  -0.37149  -0.07835
H     3.40745  -1.21500  -1.61867
H     2.65970  -1.79386  -0.10198
H     1.73862   0.42344  -1.82282
H    -0.73006  -1.70782  -0.99920
H    -1.83422  -0.51479  -1.90490
H    -3.38033  -0.47007   0.05291
H    -2.28159  -1.67901   0.94334
H    -0.78577  -0.02378   1.54361
18

C     2.96556  -0.90080  -0.66611
N     1.81578  -0.06450  -0.93506
C     0.86858   0.16721  -0.00506
O     0.96085  -0.24683   1.16500
N    -0.19359   0.92063  -0.54271
C    -1.54346  -0.95896  -0.95327
C    -2.37578  -0.89398   0.15837
N    -1.58700   0.56962   1.27921
O    -1.09637   1.38594   0.35412
H     3.73320  -0.37159  -0.07841
H     3.40763  -1.21509  -1.61868
H     2.65997  -1.79394  -0.10195
H     1.73815   0.42248  -1.82321
H    -0.72889  -1.70502  -0.99834
H    -1.83382  -0.51324  -1.90460
H    -3.37941  -0.46777   0.05349
H    -2.28056  -1.67620   0.94407
H    -0.78614  -0.02537   1.54339
18

C     2.96623  -0.90099  -0.66612
N     1.81655  -0.06472  -0.93491
C     0.86781   0.16518  -0.00587
O     0.96360  -0.24357   1.16597
N    -0.20377   0.90379  -0.54889
C    -1.53271  -0.94098  -0.94776
C    -2.36483  -0.87085   0.17061
N    -1.59909   0.54831   1.26781
O    -1.09857   1.38322   0.35433
H     3.73346  -0.37168  -0.07847
H     3.40781  -1.21519  -1.61868
H     2.66023  -1.79401  -0.10192
H     1.73768   0.42152  -1.82359
H    -0.72773  -1.70222  -0.99748
H    -1.83341  -0.51168  -1.90431
H    -3.37850  -0.46546   0.05407
H    -2.27953  -1.67339   0.94481
H    -0.78652  -0.02697   1.54318
18

C     2.96691  -0.90119  -0.66612
N     1.81732  -0.06495  -0.93476
C     0.86704   0.16315  -0.00669
O     0.96635  -0.24030   1.16693
N    -0.21395   0.88695  -0.55507
C    -1.52196  -0.92300  -0.94226
C    -2.35388  -0.84773   0.18284
N    -1.61117   0.52700   1.25641
O    -1.10078   1.38051   0.35455
H     3.73372  -0.37178  -0.07853
H     3.40799  -1.21528  -1.61868
H     2.66050  -1.79409  -0.10189
H     1.73721   0.42055  -1.82397
H    -0.72656  -1.69942  -0.99661
H    -1.83301  -0.51013  -1.90402
H    -3.37758  -0.46315   0.05466
H    -2.27850  -1.67058   0.94555
H    -0.78689  -0.02857   1.54297
18

C     2.96758  -0.90138  -0.66612
N     1.81808  -0.06517  -0.93461
C     0.86627   0.16112  -0.00751
O     0.96910  -0.23703   1.16790
N    -0.22412   0.87010  -0.56124
C    -1.51120  -0.90503  -0.93675
C    -2.34294  -0.82460   0.19508
N    -1.62325   0.50569   1.24501
O    -1.10298   1.37780   0.35476
H     3.73399  -0.37188  -0.07859
H     3.40817  -1.21538  -1.61869
H     2.66076  -1.79416  -0.10186
H     1.73675   0.41959  -1.82436
H    -0.72540  -1.69663  -0.99575
H    -1.83261  -0.50857  -1.90372
H    -3.37666  -0.46085   0.05524
H    -2.27747  -1.66777   0.94629
H    -0.78727  -0.03016   1.54276
18

C     2.96825  -0.90158  -0.66612
N     1.81885  -0.06539  -0.93446
C     0.86550   0.15908  -0.00832
O     0.97185  -0.23376   1.16886
N    -0.23430   0.85326  -0.56742
C    -1.50045  -0.88705  -0.93125
C    -2.33199  -0.80147   0.20731
N    -1.63534   0.48438   1.23361
O    -1.10518   1.37509   0.35498
H     3.73425  -0.37198  -0.07865
H     3.40835  -1.21547  -1.61869
H     2.66103  -1.79424  -0.10183
H     1.73628   0.41862  -1.82474
H    -0.72423  -1.69383  -0.99489
H    -1.83221  -0.50701  -1.90343
H    -3.37575  -0.45854   0.05583
H    -2.27644  -1.66496   0.94703
H    -0.78764  -0.03176   1.54254
