10

O 1.772459567 -1.877290650 2.493151354
C 2.431527499 -0.876292989 0.518995762
C 0.960863052 0.702494537 -1.102169458
C -2.511979829 -0.450109047 -0.039300918
N -1.333772025 1.762538032 -0.176956222
H 4.412747265 -1.075616973 -0.137695574
H 1.764825149 1.488337468 -2.813810741
H -2.904311142 -1.425045230 -1.787969626
H -3.241656565 -1.203929056 1.725700184
H -1.334084737 2.955357993 1.312558696

