19

C 4.308267728 0.784699003 2.015287956
C 2.079250991 1.343102906 0.295904428
C 0.472386159 -0.894763928 -0.262276355
O -0.868831122 -1.529555607 3.209352661
C -1.991975596 -0.762199830 -1.277945320
C -3.075249532 1.646445410 -2.349625011
O -2.664831820 -2.955133418 -2.648944722
H 3.618503444 0.134104263 3.843470955
H 5.518544487 -0.683662528 1.214229292
H 5.461783502 2.469398498 2.296247353
H 0.912280329 2.847145189 1.087263167
H 2.737991149 2.031920268 -1.549555977
H 1.426222434 -2.702408344 -0.434644133
H -0.802391413 -3.256450324 3.781966416
H -2.319151439 -1.131457643 1.218689574
H -2.408193954 1.973895943 -4.279304897
H -5.134879420 1.537134977 -2.414087424
H -2.587560257 3.283818396 -1.199119495
H -4.401155836 -3.337130688 -2.305186041

