12

C 3.197737894 -0.474076500 -0.325782075
C 0.592823167 0.597073066 -0.630704862
O -0.019565317 1.766553492 -2.524268945
C -1.341679300 0.072891196 1.365402468
C -3.886772838 -1.022077895 0.417874155
O -4.426345205 -0.287626407 -1.834641326
H 3.077710597 -2.533915260 -0.219538252
H 4.022849824 0.174103680 1.451765031
H 4.389660915 0.076563709 -1.906693730
H -0.635012531 -1.112323581 2.890366419
H -1.933201409 1.870757035 2.211278879
H -3.085197617 0.782132151 -2.610779813

