12

C 3.007096049 -0.575078412 -0.451935902
C 0.739422677 1.132655068 -0.356986594
O 0.475475993 2.904067311 -1.770724477
C -1.324690587 0.473555786 1.508065169
C -3.598937163 -0.905523708 0.471662658
O -3.273112039 -1.434242716 -1.992633069
H 2.384080085 -2.505881797 -0.844245143
H 3.958012981 -0.601822402 1.380670794
H 4.312170579 0.047750337 -1.912301303
H -0.686941884 -0.620323746 3.145744517
H -2.160347038 2.201850412 2.294229258
H -3.879219622 -0.206951448 -3.187269832

