11

C 4.029549867 -0.353036726 0.014458861
C 3.843122054 0.050416589 -2.380057463
C 1.225480419 -0.134150751 -0.024399860
C -0.389366049 1.885159658 0.063531572
C -2.869498683 0.911293382 0.220180476
C -2.597619496 -1.645164610 0.219839985
O -0.179497110 -2.321471191 0.054507638
H 5.228009527 -0.787169348 1.598767620
H 0.192848195 3.835182257 -0.014922203
H -4.621475433 1.944231552 0.304118709
H -3.951320950 -3.164610466 0.335204684

