11

C 3.958950795 1.063015013 0.321254594
O 1.359905482 1.318918003 -0.305391912
C 0.186239747 -0.886213296 -0.751643612
H 1.184933529 -2.218503000 -1.961731909
C -2.457123480 -1.146560675 -0.253341257
N -4.716928901 -0.779646140 -0.785882784
H -5.880312674 -1.524606943 0.552128803
O -0.960304222 -2.207739668 1.491124379
H 4.961552568 -0.013051299 -1.133486850
H 4.176038488 0.128202403 2.149198844
H 4.733783879 2.962893389 0.420282214

