13

C 3.834155758 1.397618255 -0.450233107
O 1.164842773 1.277929427 0.003109979
C -0.098192777 -0.584558091 -0.878701426
C -2.702942569 -1.134853614 0.179978178
O -2.370879724 -2.140278921 2.275197127
N -4.551994418 -0.557949462 -1.306839705
H 4.153828443 2.484543009 -2.169709667
H 4.614879136 -0.501012864 -0.627790602
H 4.656474333 2.359683702 1.165462358
H 0.974363898 -2.168358059 -1.657305231
H -1.069920394 0.415647132 -3.954705903
H -6.270631239 -1.045163319 -0.622867545
H -2.576416183 0.239846100 -3.476220956

