12

O 4.960292877 -1.103059236 0.144541334
C 2.615354273 -0.647857377 0.099812065
C 2.259130165 -3.206907450 0.009537070
C -3.019749844 -0.061233740 -0.486568289
C -1.134649164 2.018630882 -0.272649950
C 1.359443897 1.773426577 -0.002599129
H 2.164381395 -4.152989990 1.838626740
H -2.143368321 -1.900197740 -0.789346634
H -4.319325403 0.317343220 -2.043454419
H -4.161488429 -0.146682639 1.234029577
H -1.889018365 3.927337151 -0.352493751
H 2.583357223 3.410811280 0.116445037

