11

N 5.049111913 0.132391623 0.102933628
C 3.185513936 -1.357577566 0.099281354
C 0.507535934 -0.646602183 0.026343198
N -1.407267744 -2.155671175 0.018175216
C -3.483906056 -0.581621815 -0.061474945
C -2.682509943 1.835723327 -0.097498473
O -0.120497952 1.821142351 -0.041866637
H 4.465548783 1.969466633 0.046770835
H 3.496706834 -3.391670490 0.155283482
H -5.388902869 -1.300896081 -0.086830156
H -3.599805076 3.649274931 -0.156412102

