17

C 5.497441764 -2.295142052 -0.427705285
C 2.686408524 -1.878341186 -0.688024621
O 2.098194021 0.495131828 0.377934472
C -0.361605708 1.231043130 0.332310890
C -5.314863872 3.037446071 0.402345331
C -2.293614757 -0.064611305 -0.634949584
O -4.753535693 0.678365154 -0.677476567
H 6.052518427 -2.272452130 1.557053446
H 6.024513876 -4.118680066 -1.233153293
H 6.542911823 -0.818018598 -1.413747842
H 2.115307456 -1.906953888 -2.682977216
H 1.623611944 -3.366227878 0.293559410
H -0.580180937 3.065039285 1.205366098
H -7.342513075 3.311047687 0.197700313
H -4.816705042 3.083003872 2.412930912
H -4.317523115 4.570131971 -0.571749659
H -2.083363167 -1.897991995 -1.510072020

