14

O 2.253272355 5.023120923 1.887585235
C 0.550246806 3.988677453 0.941340821
C 2.923916295 -1.239703631 -1.212414455
C 1.292539958 -2.170568623 0.440398084
C -1.445419255 -1.473049923 0.708742803
C -2.340663514 0.773045043 -0.846579843
N -1.305183360 3.157356299 -0.043286860
H 4.862332876 -1.891858492 -1.257437294
H 2.419169672 0.203815485 -2.576791596
H 1.944842652 -3.605495004 1.757259309
H -2.597962444 -3.111997448 0.185446497
H -4.391690292 0.921228806 -0.712169841
H -1.897577691 0.497694996 -2.846337784
H -1.860219620 -1.115920429 2.703810634

