13

C 2.575315607 -0.106917265 2.710177518
C 0.050664842 2.233526701 -5.876915626
N -1.085457420 1.272583675 -4.249377115
C -2.355483332 0.139287007 -2.284078103
C -1.094575197 -0.425130156 -0.128427791
O -2.232199395 -1.502747555 1.873361720
N 1.399544604 -0.024328334 0.241877442
H 2.243431020 -1.927632651 3.609729634
H 1.890806405 1.383362425 3.968842756
H 4.603353734 0.123884946 2.457826817
H -4.327234134 -0.299674092 -2.560327622
H -3.991364890 -1.751111841 1.508207012
H 2.268078623 0.961017235 -1.129252239

