13

N -3.843338995 1.171171126 -0.707248143
C -1.410208820 0.404371798 -0.271518401
C -0.456920432 -1.916897627 -0.812275682
N 2.204591120 -1.882879533 -0.172673063
C 2.775459978 0.980648541 0.950524360
O 4.916915083 1.355174307 1.607419466
C 0.444818040 2.095215907 0.757093412
H -5.146020962 -0.183838680 -0.968693208
H -4.452982727 2.656155294 0.303605535
H -1.323844065 -3.563688668 -1.632225920
H 2.720351406 -3.114647468 1.207568347
H 3.400127978 -2.117779105 -1.658271637
H 0.104689013 4.028728762 1.299281480

