15

C -1.286276744 1.309759766 0.305022659
O -1.844701208 1.807638803 -2.286000219
C -0.122496980 3.111119406 -3.589765112
C 0.510189280 -2.798114846 -1.107079250
C 0.034070118 -1.169263315 0.731119013
C 0.747580152 -1.619637736 3.437866923
O 1.819698581 3.935761494 -2.787956207
H -3.112150837 1.307284508 1.267592833
H -0.148166604 2.853092365 1.068980274
H -0.781421047 3.330623057 -5.545989320
H 1.466221020 -4.566610693 -0.722803216
H -0.027444228 -2.426063639 -3.044952460
H -0.906879737 -1.507841029 4.671958824
H 2.090217411 -0.189509162 4.087037320
H 1.608556420 -3.473120237 3.680216910

