15

C -2.356696725 1.299165508 0.613394026
O -1.535718760 2.440136316 -1.638739863
C 0.871286028 1.177427745 -2.413858900
C 0.034588753 -1.894029655 -1.550157326
C -0.428410834 -0.808274338 0.873772473
C 1.645674893 -0.394198495 2.461096667
O 2.850675537 1.911891214 -1.316274238
H -4.288872259 0.585350755 0.412406648
H -2.285541015 2.600545775 2.221835986
H 0.820809969 1.117375726 -4.486797184
H 1.687990396 -3.085285149 -1.768295158
H -1.604255347 -2.493615452 -2.628773578
H -0.264737307 -1.977903240 3.075621316
H 1.609680921 1.130949666 3.822097717
H 3.278444109 -1.619228800 2.353974726

