11

C -2.145916824 0.712471989 -0.184059022
C -0.744063523 -0.660247423 -2.263411340
O 1.736021792 0.256623598 -2.421336886
C 2.856994366 0.776111521 -0.177219026
N 1.884412687 -0.000795253 1.856704427
C -0.544912487 -1.044524894 1.359606074
H -1.740640169 2.702438806 0.117843472
H -4.151608846 0.293076056 -0.214760533
H -0.287454820 -2.627638986 -0.377891821
H 4.647396315 1.756005891 -0.319538893
H -1.387810160 -2.196247582 2.832041137

