12

C -2.134678264 1.042959501 1.823610107
C -0.135418643 0.114544729 0.078493516
N -0.599366721 -0.096213138 -2.649371838
N 2.542452060 0.328422117 0.670056085
C 1.581806534 -2.056314270 -0.170090998
O 1.245884075 -2.128635940 -2.830766517
H -3.914050600 0.072807633 1.460077464
H -2.427695531 3.071339159 1.569221468
H -1.562086448 0.719237001 3.773078165
H 0.125615443 1.399318309 -3.627989018
H 3.617538474 1.232049012 -0.637564889
H 1.966397907 -3.812243835 0.799275311

