12

C -2.068420403 1.166420827 1.640817654
C -0.127109442 0.020003337 -0.059496780
N -0.774647342 -0.282783927 -2.610143807
N 2.472727005 0.212555072 0.815486591
C 2.065863623 -2.196746904 -0.271628836
O 2.198654980 -2.211654727 -2.721450566
H -3.989059556 0.749820612 1.028545502
H -1.786525554 3.212104499 1.758376666
H -1.807585116 0.410624353 3.540245935
H -1.404371815 1.432994608 -3.334397010
H 3.542585303 1.287343136 -0.369387411
H 1.984292310 -3.913410569 0.841060879

