15

C 4.310081525 -1.820196656 -2.971541702
C 3.093084011 -0.312444199 -1.215818684
C 2.316015514 1.607246405 0.044587389
C -0.187154450 2.520315355 0.855291537
C -2.404774325 0.940564824 0.005406280
C -3.454761358 -1.043937283 1.609625060
O -4.718575571 1.299994361 1.297733757
H 4.847175326 -3.730360358 -2.481300825
H 1.841431698 -2.119394858 -1.177331066
H 4.574548469 -1.210555248 -4.911201024
H -0.387009939 4.444366370 0.113074049
H -0.231396265 2.744441106 2.910120671
H -2.603068899 0.735802434 -2.033548947
H -4.390850460 -2.664341341 0.765976542
H -2.642148606 -1.358115136 3.470197303

