12

C 0.146892985 -1.177277927 -1.008808238
H 1.613137249 -2.162169716 0.051903463
H 0.659867758 -1.192872835 -3.006796357
C -2.620508558 -2.010495328 -0.612328258
H -2.901794537 -2.816556853 1.265494349
H -3.454355237 -3.281258516 -2.003269431
C -3.393375022 0.801289551 -0.692180545
H -3.942770941 1.378276870 -2.594824364
H -4.837313809 1.441000357 0.630838825
C -0.617531355 1.495722876 -0.125457217
H -0.300462599 1.739971584 1.898160369
H 0.195697411 3.109869465 -1.114349877

