15

C 3.809937727 0.177709353 -0.457620236
C 1.262100439 -1.145343049 -0.284413533
C -0.972128843 0.634492818 -0.580101720
C -3.481277239 -0.765355899 -0.595541198
O -0.856542687 2.383877147 1.456948493
H 3.984465594 1.625003992 0.998083003
H 4.045654435 1.094161442 -2.293783113
H 5.358468055 -1.163512463 -0.219628033
H 1.118336576 -2.606574908 -1.739905141
H 1.079450529 -2.098825851 1.542519147
H -0.761463252 1.661021869 -2.377519032
H -3.580253478 -2.083869765 -2.179973336
H -3.719171687 -1.823037463 1.160416657
H -5.064141982 0.549663334 -0.777299289
H -2.223434184 3.560589480 1.292010343

