16

C -4.098715317 -1.219520733 -0.236351807
C -1.916919586 0.546946002 0.392785754
C 0.628414382 -0.488361431 -0.426748952
O 0.606177956 -0.784986771 -3.082080948
C 2.787939521 1.232178477 0.340669659
O 5.050853958 0.114809819 -0.570444898
H -5.899181835 -0.416231435 0.368331054
H -4.193794922 -1.566755244 -2.264505454
H -3.873527105 -3.042010326 0.708424781
H -2.201504762 2.375173012 -0.532401045
H -1.856339124 0.900167997 2.429976638
H 0.937467751 -2.336846664 0.478649940
H 2.308682961 -1.183877531 -3.577111998
H 2.839794929 1.430021748 2.403266852
H 2.497838820 3.101606921 -0.506348638
H 6.382812393 1.337686158 -0.533424577

