14

C -4.172359116 -1.364603870 0.455602481
C -1.374806483 -1.362144089 0.955534251
C 0.126437021 0.755940414 -0.266286675
N 2.780031490 0.386318072 0.124424651
C 4.618152898 1.718250543 -1.048671444
O 6.856415517 1.413359144 -0.736546797
O -0.349467921 -2.939571126 2.234443841
H -4.947285061 0.545982506 0.458957897
H -5.132758788 -2.527895840 1.851053371
H -4.505617402 -2.166794651 -1.418828522
H 3.859616699 3.157664248 -2.365128060
H -0.561649999 2.530330204 0.562395893
H -0.360934553 0.816952169 -2.277949456
H 3.281069355 -1.006990662 1.330113817

