14

C -1.844443392 2.545167955 -0.195351799
C -0.596442484 0.205315399 -1.088416882
C 2.027903182 -0.543752592 1.673864656
O 0.395695914 0.185468966 -3.333846344
C -0.506998590 -2.250509991 0.061437453
O 0.328176453 -4.003036178 -1.358126626
H -0.532512312 4.136091360 -0.200732038
H -3.372753688 2.985902165 -1.508063600
H -2.629106925 2.297827145 1.689694098
H 2.751034455 -2.287791755 2.481160683
H 1.457670047 0.765525445 3.152004084
H 3.455204253 0.261244300 0.432709942
H 0.759247870 -1.705748115 -3.501154456
H -1.751547309 -2.610484222 1.679546174

