11

O -3.884915956 0.574233685 -0.897670781
C -2.351956820 0.260582329 0.758645803
N -0.518030585 2.642954026 1.583930700
C 1.497871741 1.760957824 0.387590822
C 0.157515154 -1.736802646 0.074805735
C 1.208984376 -3.713415505 -0.400535143
H -2.721396123 -0.477525893 2.673007739
H -0.332166477 2.768681473 3.484244525
H 1.454104569 1.847512837 -1.660404779
H 3.353371864 1.669416543 1.266617489
H 2.154060410 -5.437509969 -0.842332457

