12

C -1.731423351 -2.329392885 0.240518256
C -0.304133354 0.132577875 0.021123226
O -1.899522729 4.107661980 2.654219760
C 2.409075096 -0.103657525 -0.257946161
C 4.650292755 -0.346841372 -0.464221333
C -1.357236830 2.508560880 0.823994025
N -1.585686293 2.304240422 -1.500743085
H -1.423895237 -3.473681202 -1.447027147
H -1.081692991 -3.413543181 1.871162589
H -3.750013888 -1.971683981 0.437583885
H -1.255237841 3.464740019 4.226817092
H 6.640573115 -0.549297559 -0.673783834

