12

C -1.752180651 -2.383989643 0.438323505
C -0.229556276 -0.051772638 0.206856489
O -1.806149850 2.653487718 2.611941504
C 2.419154951 -0.194777511 0.251840097
C 4.685381549 -0.320398265 0.287171172
C -1.444182826 2.316700010 -0.361149755
N -2.037259311 3.572094094 -2.127920887
H -1.913337799 -3.162119070 -1.475995213
H -0.831731093 -3.790746500 1.623409290
H -3.644541318 -1.940380989 1.106972878
H -0.656189992 3.971067814 3.130683381
H 6.697983600 -0.408881648 0.305640940

