14

O -3.684458684 2.816926635 0.296562450
C -2.838249152 0.347760932 0.206896495
C 0.843651353 -2.919121587 0.531682061
C 2.616956364 -1.398914853 -1.222962982
C 1.694663341 1.113220860 -0.226608228
O -0.389209863 0.136060905 1.314012444
H -4.071092567 3.254399026 2.014381285
H -3.995476839 -0.978462109 1.280002041
H -2.754795879 -0.220816520 -1.772481714
H 1.822355158 -3.141762411 2.353718800
H 4.636482825 -1.703085699 -0.927597844
H 2.200003413 -1.689361015 -3.223119883
H 0.981559994 2.493786416 -1.582581265
H 2.984691172 2.040044862 1.080206665

