10

O -1.044740379 4.231271574 -0.415011598
C -0.779527938 2.023094982 0.202497949
C -2.035530438 -0.364076941 -0.253165173
C 0.174254556 -1.960387520 -0.174461916
O 2.133816360 -1.026039366 -2.134846695
C 2.035327841 0.043885015 0.155055109
H -3.917282788 -0.754111688 -0.962794088
H -0.631774107 1.419378300 2.327982469
H 0.389181423 -3.949796263 0.215020087
H 3.743062209 0.295143662 1.272460635

