19

C 5.254257898 0.180117507 -0.696375529
C 3.194684739 2.133088267 -0.170262018
C 0.663388469 0.941799382 0.270119059
C -1.380807856 1.359524475 -1.122362807
C -3.954349633 0.205966655 -0.759565457
C -4.025891301 -2.106061820 0.942726519
O -2.683161748 -4.179267766 -0.072752075
H 5.423074654 -1.162839002 0.862926805
H 4.828743523 -0.894043678 -2.406399962
H 7.092195965 1.081489260 -0.947653337
H 3.722480673 3.239810700 1.497239703
H 3.062359426 3.464659574 -1.744194366
H 0.565777369 -0.357556044 1.865157039
H -1.219627502 2.678817097 -2.692362219
H -1.046177006 -3.587777612 -0.588404175
H -4.715984265 -0.321190400 -2.609064490
H -5.239626750 1.643579735 -0.002700513
H -3.328456203 -1.628048208 2.839118104
H -5.974948854 -2.742697701 1.160543495

