15

C 5.337668935 -1.887175996 -2.891035249
C 3.282657783 -0.624801264 -1.558667310
C 1.608102810 0.426333061 -0.454258659
C -0.475517567 1.669351914 0.860595998
C -3.006701171 0.592921092 0.028974944
C -6.334085162 1.054791455 3.090147169
O -5.014632613 1.977880299 1.266397260
H 7.089949024 -1.764612063 -1.812110613
H 4.904735874 -3.881364801 -3.184000832
H 5.655072834 -1.021244847 -4.734787890
H -0.447331660 3.699307226 0.483242144
H -0.266873435 1.426960637 2.902134669
H -3.288585551 0.840938009 -1.995608802
H -5.635474145 -0.930777611 3.416185188
H -3.186234489 -1.404499258 0.524249825

