15

C 5.196098723 -1.884302705 -2.908643604
C 3.199757577 -0.490153156 -1.619614587
C 1.575213204 0.673796552 -0.554403353
C -0.446973746 2.051959415 0.720160963
C -2.969544016 0.706786578 0.501598944
C -5.211716554 -0.160684962 3.134875852
O -4.883635834 2.071482043 1.792537094
H 6.949072077 -1.816451257 -1.826131568
H 4.668718284 -3.862832465 -3.148279642
H 5.559301420 -1.086181450 -4.774411875
H -0.663714390 3.934229871 -0.101737639
H -0.018388547 2.308852356 2.722400550
H -3.555261945 0.220028372 -1.411445249
H -6.464488303 -1.354069214 1.904562893
H -2.723930019 -1.150068252 1.606344363

