16

C -1.581634512 0.362159114 -2.570351617
C -1.598643654 0.027504548 0.301399846
C -1.197948867 -2.751026972 1.037500649
C 0.232158051 1.697644705 1.682848830
C 2.736155923 2.096671317 1.254575115
C 4.029289879 0.574447602 -0.527342399
H -3.131508096 -0.727535336 -3.389707744
H 0.201734254 -0.280641809 -3.365995026
H -1.850955011 2.340262382 -3.089288515
H -3.472103583 0.575132042 0.989949490
H -1.153055985 -3.008096640 3.084954333
H -2.729736448 -3.907397309 0.280457920
H 0.593523972 -3.411322054 0.258083185
H 3.686879385 3.403408542 2.540403691
H -0.557442240 2.621988743 3.346612049
H 6.053914140 0.573948299 -0.019454390

