16

C -1.579900122 0.522975526 -2.449128446
C -1.567665997 0.158576632 0.408916759
C -1.273097624 -2.618916067 1.114548223
C 0.464801101 1.803334744 1.684622149
C 3.046485103 1.187560891 0.918347125
C 5.154748209 0.667614823 0.278379826
H -3.107441866 -0.556944902 -3.319323496
H 0.201468880 -0.115600178 -3.275244633
H -1.838742429 2.507646007 -2.955206380
H -3.379876576 0.827675174 1.153111032
H -1.320754155 -2.887231269 3.160949027
H -2.789924187 -3.748559025 0.290211383
H 0.523533599 -3.362287799 0.419593031
H 0.109468773 3.794308010 1.257815144
H 0.323849849 1.604244349 3.737287130
H 7.033047443 0.215603105 -0.279980330

