16

C -2.452970599 0.765691458 -2.244466968
C -1.558013408 0.005811664 0.399444734
C -0.728375187 -2.743629979 0.517264282
C 0.416777283 1.793326414 1.386713477
C 2.931127036 1.203733035 1.752979249
C 4.895009605 -0.128097353 2.371127619
H -4.030318797 -0.421259978 -2.844099649
H -0.923896986 0.535698315 -3.612780295
H -3.074631931 2.732312069 -2.300897232
H -3.161912598 0.265801582 1.694641439
H -0.045294789 -3.246516903 2.395490138
H -2.303926633 -3.987766341 0.043821993
H 0.799496050 -3.111447481 -0.821256209
H 3.086623302 2.864876942 0.306712395
H -0.159867221 3.743891270 1.672552770
H 6.543797954 -0.166244801 1.144170266

