15

O -4.565594606 1.888080305 1.792276293
C -2.767978268 1.635084736 -0.185764935
C -1.525807373 -0.877644673 0.076304817
C 0.930444225 -1.322671566 0.351585360
O 1.905254306 -3.700320005 0.606399640
C 3.060337665 0.550759167 0.381503390
O 4.627952394 0.250607202 2.513120204
H -5.570609295 3.361061216 1.474860980
H -1.379543062 3.167283767 -0.116511707
H -3.721595525 1.744597936 -2.025884085
H -2.813589756 -2.480805490 0.054311655
H 0.556470827 -4.903737021 0.759930930
H 4.146307616 0.328230329 -1.374746729
H 2.336268219 2.473031818 0.435700717
H 5.037502419 -1.512694733 2.648369357

