10

C -1.492984172 -1.381909528 -0.232166479
C -1.398132714 1.440131688 -0.510955167
N 0.743559647 2.375571347 -0.042668466
C 2.403568887 0.313253475 0.618625034
O 1.004716320 -1.980299961 0.466828153
H -2.841146669 -1.970457681 1.229213119
H -2.016657403 -2.323802678 -2.002801742
H -3.000194051 2.601869698 -1.054174912
H 3.118769981 0.580729902 2.542056162
H 4.004915492 0.250298931 -0.689459490

