19

C -5.555099992 -2.083228486 1.099933591
C -4.002554657 -1.495155127 -1.261848387
C -1.336591742 -0.741531876 -0.660495544
C 3.655052391 0.825652335 0.463284879
C 6.131590804 2.214701173 0.744475937
C -0.394231830 1.503957566 -1.277660425
O 1.944908527 2.419970954 -0.831881931
H -7.474843509 -2.661048097 0.611464994
H -4.694259142 -3.612169611 2.188479806
H -5.671422877 -0.429175190 2.327833955
H -3.990955839 -3.161214836 -2.490164944
H -4.917570913 0.011991503 -2.340686342
H -0.193777468 -2.113974916 0.346606763
H 3.903692652 -0.931908479 -0.607845601
H 2.866417976 0.326595054 2.314651396
H 7.495137107 1.034034022 1.743639996
H 5.871769675 3.957688194 1.813115286
H 6.909991255 2.695018022 -1.102326117
H -1.520727846 2.895408057 -2.278526541

