19

C -5.056381652 -1.713842889 1.318137111
C -3.151369155 -1.796761653 -0.852470951
C -0.930512331 -0.070062938 -0.507747867
C 3.795995838 0.081470780 -0.654646388
C 5.090889109 1.487446159 1.390840053
C -0.546242117 2.149747450 -1.814110227
O 1.528063970 3.314003199 -1.858830444
H -6.598715700 -3.054385519 1.022642300
H -4.148457180 -2.182492606 3.113017825
H -5.870223483 0.173066126 1.507150787
H -2.482028010 -3.745138905 -1.078856701
H -4.097173698 -1.334738072 -2.632774657
H 0.028066874 -0.139208848 1.308248647
H 4.338856932 0.421041941 -2.589643038
H 3.336688076 -1.864992501 -0.240278526
H 6.801165499 0.429365523 1.906504625
H 3.932695583 1.585491141 3.094574135
H 5.600590707 3.392470732 0.822917996
H -2.134329553 3.011266655 -2.848069832

