14

O 1.515509405 -1.636952957 -2.659151209
C -0.122812243 0.215964516 -2.839607827
C -2.268551546 0.320259521 -1.203384116
C -1.795665914 -0.812582215 1.479509253
O 0.744873063 -1.321867884 1.991846622
C 2.160085859 0.912522100 2.348360350
H 1.481214353 -2.271749926 -0.881972561
H 0.468979871 1.773383454 -4.046165190
H -3.652459422 -1.076260557 -1.864778376
H -3.139652664 2.188816499 -1.251359424
H -2.808385224 -2.585274936 1.772120210
H 2.049425216 2.135819810 0.666237931
H 1.423513814 1.949766276 3.967199412
H 4.122595238 0.371914315 2.653735688

