18

C -4.826371501 0.521884624 -0.700205663
C -2.221864483 -0.712767108 -0.741726537
C -0.280939271 0.518214701 0.942191519
C 2.813516208 -1.840104921 0.985016946
C 4.839870023 -0.612776879 -0.070907267
C 1.082679730 2.797743930 0.032091575
N -0.430163044 4.474127686 0.233295610
H -6.137016283 -0.520151708 -1.906110768
H -4.717898444 2.468987105 -1.363271632
H -5.598963237 0.551766713 1.212761466
H -2.406663106 -2.671540574 -0.102566076
H -1.495748558 -0.785125571 -2.676652057
H -0.805436140 0.594017795 2.927594496
H 2.777721451 -2.127565297 3.013738530
H 1.874895554 -3.294078456 -0.111010185
H 5.293674807 -0.835598247 -2.054802942
H 3.153947327 2.485602654 -0.596727228
H 6.246444332 0.318242881 1.087778722

