14

C 3.207346320 1.894806067 0.459947811
C 1.668118414 -1.428058984 -0.681459372
O 0.717071639 0.275063300 1.920105664
C -0.911466178 -0.953674326 0.163948424
C -2.697230740 0.735800960 -1.258682718
O -4.594342726 1.744744428 0.322030232
H 2.548374802 2.981007850 -1.140346310
H 5.027030464 1.034668895 0.078005702
H 3.319426902 3.038149370 2.172102400
H 2.411112787 -3.145170891 0.206331051
H -1.854791438 -2.467332725 1.193212041
H -3.659546859 -0.372764314 -2.708643948
H -1.629571044 2.228059761 -2.219793834
H -3.779433314 2.631665482 1.678326394

