13

C -1.013597201 0.460945870 1.961421351
H -1.690497042 1.214208316 3.759440938
H -1.964207091 -1.342183706 1.660883390
C 1.886607150 0.204169733 2.058666185
H 2.598079607 0.025844046 3.988481640
H 2.551041564 -1.466818400 1.031426522
C 2.783897964 2.575189638 0.765285374
H 4.741837381 3.174029239 0.767145281
C 0.924549924 3.754943446 -0.428728912
H 1.139670828 5.458955545 -1.542968940
C -1.558010536 2.391364563 -0.151162292
H -2.071331678 1.466980255 -1.931956911
H -3.117990526 3.658254759 0.321349968

