10

O -3.855389627 0.328536332 1.077048422
C -1.658001992 -0.051172706 0.117164815
C 0.323462777 1.637821777 0.823638492
C 2.544605875 0.171151550 0.217187036
N 2.007296456 -1.995061443 -0.794827406
N -0.606443047 -2.111102816 -0.889053932
H -1.909331995 1.430520314 2.403639506
H 0.166814345 3.658512801 0.545720458
H 4.503148739 0.714464271 0.413344066
H -1.445988441 -3.789044461 -1.182570370

