10

O 4.376606801 0.267022364 -0.389027335
C 1.198401475 0.240688974 -0.369741621
N 0.046685797 -1.785114930 -0.136199667
N -2.576633577 -1.671871165 -0.270821772
C -3.866503277 0.404588965 -0.331156853
C 2.395572984 2.390168291 -0.894703098
H 4.946512427 -0.245269481 -2.042626964
H -3.272211188 -3.456866872 -0.280696290
H -5.863092960 -0.176335825 -0.443441942
H 2.614663408 4.032991569 0.289250835

