26

C     3.06414   2.22162   0.42078
C     3.15103   0.74145   0.19796
O     4.17894   0.09783   0.03875
C     1.83530   0.16357   0.22275
N     0.69763  -0.07818  -0.11963
N    -0.36546  -0.58234  -0.48477
C    -1.59805   0.02178  -0.27602
C    -2.70996  -0.75547  -0.64445
C    -3.99395  -0.24228  -0.48689
C    -4.17626   1.04337   0.03659
C    -3.06498   1.80927   0.41015
C    -1.77326   1.30622   0.26004
C     1.09272  -3.06095   0.00803
C     2.28649  -2.63218   0.34318
H     4.01464   2.60499   0.46083
H     2.44705   2.60129  -0.43061
H     2.45214   2.36717   1.33014
H    -2.53845  -1.77133  -1.04402
H    -4.84727  -0.85348  -0.78144
H    -5.17661   1.44261   0.14384
H    -3.19453   2.80438   0.80888
H    -0.89741   1.88490   0.55050
H     0.30061  -3.18889   0.75071
H     0.77884  -3.13717  -1.04621
H     2.53478  -2.27370   1.37075
H     3.01484  -2.22150  -0.42633
26

C     3.05689   2.21284   0.41863
C     3.14926   0.73178   0.19741
O     4.18258   0.09636   0.04106
C     1.84001   0.13844   0.22060
N     0.69883  -0.06805  -0.11825
N    -0.36076  -0.58463  -0.47888
C    -1.59593   0.01841  -0.27449
C    -2.70848  -0.75754  -0.64377
C    -3.99256  -0.24348  -0.48724
C    -4.17531   1.04229   0.03568
C    -3.06375   1.80786   0.40916
C    -1.77229   1.30387   0.26028
C     1.08637  -3.04284   0.00596
C     2.28045  -2.60233   0.34064
H     4.01226   2.60310   0.45983
H     2.44450   2.59825  -0.43116
H     2.45022   2.36454   1.32964
H    -2.53833  -1.77205  -1.04368
H    -4.84684  -0.85382  -0.78169
H    -5.17633   1.44235   0.14340
H    -3.19403   2.80407   0.80841
H    -0.89716   1.88415   0.55069
H     0.30050  -3.18657   0.75060
H     0.77808  -3.13414  -1.04653
H     2.53451  -2.27071   1.37006
H     3.01428  -2.21877  -0.42699
26

C     3.04965   2.20405   0.41648
C     3.14749   0.72211   0.19686
O     4.18622   0.09489   0.04337
C     1.84472   0.11331   0.21845
N     0.70004  -0.05792  -0.11686
N    -0.35605  -0.58692  -0.47298
C    -1.59380   0.01505  -0.27295
C    -2.70701  -0.75961  -0.64309
C    -3.99117  -0.24469  -0.48758
C    -4.17437   1.04121   0.03477
C    -3.06253   1.80645   0.40817
C    -1.77132   1.30153   0.26052
C     1.08002  -3.02473   0.00390
C     2.27441  -2.57248   0.33811
H     4.00988   2.60121   0.45884
H     2.44195   2.59521  -0.43171
H     2.44831   2.36190   1.32914
H    -2.53820  -1.77277  -1.04333
H    -4.84640  -0.85415  -0.78194
H    -5.17606   1.44208   0.14297
H    -3.19353   2.80377   0.80794
H    -0.89691   1.88341   0.55089
H     0.30038  -3.18425   0.75049
H     0.77732  -3.13112  -1.04685
H     2.53424  -2.26772   1.36937
H     3.01371  -2.21603  -0.42766
26

C     3.04240   2.19526   0.41433
C     3.14573   0.71245   0.19632
O     4.18985   0.09342   0.04568
C     1.84942   0.08818   0.21630
N     0.70124  -0.04778  -0.11548
N    -0.35134  -0.58921  -0.46709
C    -1.59168   0.01169  -0.27141
C    -2.70554  -0.76169  -0.64241
C    -3.98978  -0.24589  -0.48793
C    -4.17342   1.04013   0.03385
C    -3.06131   1.80504   0.40718
C    -1.77035   1.29918   0.26076
C     1.07368  -3.00662   0.00184
C     2.26837  -2.54263   0.33557
H     4.00750   2.59932   0.45784
H     2.43939   2.59217  -0.43226
H     2.44640   2.35927   1.32864
H    -2.53807  -1.77349  -1.04298
H    -4.84596  -0.85449  -0.78219
H    -5.17579   1.44182   0.14253
H    -3.19304   2.80346   0.80747
H    -0.89666   1.88266   0.55109
H     0.30026  -3.18193   0.75037
H     0.77656  -3.12809  -1.04717
H     2.53397  -2.26473   1.36868
H     3.01315  -2.21330  -0.42832
26

C     3.03515   2.18647   0.41218
C     3.14396   0.70278   0.19577
O     4.19349   0.09195   0.04799
C     1.85413   0.06305   0.21415
N     0.70245  -0.03765  -0.11410
N    -0.34663  -0.59150  -0.46119
C    -1.58955   0.00833  -0.26987
C    -2.70406  -0.76376  -0.64173
C    -3.98839  -0.24709  -0.48828
C    -4.17247   1.03904   0.03294
C    -3.06008   1.80363   0.40620
C    -1.76938   1.29683   0.26100
C     1.06733  -2.98852  -0.00023
C     2.26234  -2.51278   0.33303
H     4.00512   2.59743   0.45684
H     2.43684   2.58912  -0.43281
H     2.44448   2.35664   1.32814
H    -2.53794  -1.77420  -1.04264
H    -4.84553  -0.85482  -0.78245
H    -5.17552   1.44155   0.14210
H    -3.19254   2.80315   0.80699
H    -0.89641   1.88192   0.55128
H     0.30014  -3.17962   0.75026
H     0.77580  -3.12507  -1.04749
H     2.53370  -2.26174   1.36799
H     3.01258  -2.21057  -0.42899
26

C     3.02791   2.17768   0.41003
C     3.14220   0.69311   0.19522
O     4.19713   0.09048   0.05030
C     1.85883   0.03792   0.21200
N     0.70365  -0.02752  -0.11272
N    -0.34192  -0.59379  -0.45530
C    -1.58742   0.00497  -0.26834
C    -2.70259  -0.76583  -0.64104
C    -3.98700  -0.24830  -0.48862
C    -4.17152   1.03796   0.03203
C    -3.05886   1.80221   0.40521
C    -1.76841   1.29448   0.26124
C     1.06098  -2.97041  -0.00229
C     2.25630  -2.48293   0.33049
H     4.00275   2.59555   0.45585
H     2.43429   2.58608  -0.43336
H     2.44257   2.35400   1.32764
H    -2.53781  -1.77492  -1.04229
H    -4.84509  -0.85515  -0.78270
H    -5.17524   1.44129   0.14166
H    -3.19204   2.80285   0.80652
H    -0.89616   1.88117   0.55148
H     0.30002  -3.17730   0.75015
H     0.77503  -3.12204  -1.04781
H     2.53343  -2.25876   1.36731
H     3.01202  -2.20784  -0.42965
26

C     3.02066   2.16890   0.40788
C     3.14043   0.68345   0.19468
O     4.20076   0.08902   0.05261
C     1.86354   0.01279   0.20985
N     0.70485  -0.01739  -0.11133
N    -0.33722  -0.59608  -0.44941
C    -1.58530   0.00161  -0.26680
C    -2.70111  -0.76790  -0.64036
C    -3.98561  -0.24950  -0.48897
C    -4.17057   1.03688   0.03112
C    -3.05764   1.80080   0.40422
C    -1.76744   1.29213   0.26148
C     1.05463  -2.95230  -0.00435
C     2.25026  -2.45308   0.32795
H     4.00037   2.59366   0.45485
H     2.43173   2.58304  -0.43391
H     2.44066   2.35137   1.32714
H    -2.53768  -1.77564  -1.04195
H    -4.84465  -0.85549  -0.78295
H    -5.17497   1.44102   0.14123
H    -3.19155   2.80254   0.80605
H    -0.89591   1.88043   0.55167
H     0.29991  -3.17498   0.75004
H     0.77427  -3.11902  -1.04813
H     2.53316  -2.25577   1.36662
H     3.01145  -2.20510  -0.43032
26

C     3.01342   2.16011   0.40573
C     3.13866   0.67378   0.19413
O     4.20440   0.08755   0.05492
C     1.86824  -0.01234   0.20770
N     0.70606  -0.00725  -0.10995
N    -0.33251  -0.59837  -0.44351
C    -1.58317  -0.00175  -0.26526
C    -2.69964  -0.76998  -0.63968
C    -3.98422  -0.25071  -0.48932
C    -4.16962   1.03580   0.03021
C    -3.05641   1.79939   0.40323
C    -1.76647   1.28979   0.26173
C     1.04828  -2.93419  -0.00641
C     2.24422  -2.42323   0.32541
H     3.99799   2.59177   0.45386
H     2.42918   2.58000  -0.43446
H     2.43874   2.34874   1.32664
H    -2.53755  -1.77636  -1.04160
H    -4.84421  -0.85582  -0.78320
H    -5.17470   1.44076   0.14079
H    -3.19105   2.80224   0.80557
H    -0.89566   1.87968   0.55187
H     0.29979  -3.17267   0.74992
H     0.77351  -3.11599  -1.04845
H     2.53289  -2.25278   1.36593
H     3.01088  -2.20237  -0.43098
26

C     3.00617   2.15132   0.40358
C     3.13690   0.66412   0.19358
O     4.20804   0.08608   0.05723
C     1.87295  -0.03747   0.20555
N     0.70726   0.00288  -0.10857
N    -0.32780  -0.60066  -0.43762
C    -1.58105  -0.00511  -0.26373
C    -2.69816  -0.77205  -0.63900
C    -3.98283  -0.25191  -0.48967
C    -4.16868   1.03472   0.02930
C    -3.05519   1.79798   0.40224
C    -1.76550   1.28744   0.26197
C     1.04193  -2.91608  -0.00848
C     2.23818  -2.39338   0.32288
H     3.99561   2.58988   0.45286
H     2.42663   2.57696  -0.43501
H     2.43683   2.34611   1.32614
H    -2.53742  -1.77708  -1.04125
H    -4.84378  -0.85616  -0.78346
H    -5.17442   1.44049   0.14036
H    -3.19055   2.80193   0.80510
H    -0.89541   1.87894   0.55206
H     0.29967  -3.17035   0.74981
H     0.77275  -3.11297  -1.04877
H     2.53262  -2.24979   1.36524
H     3.01032  -2.19964  -0.43164
26

C     2.99892   2.14253   0.40143
C     3.13513   0.65445   0.19304
O     4.21168   0.08461   0.05953
C     1.87766  -0.06260   0.20340
N     0.70847   0.01301  -0.10719
N    -0.32309  -0.60295  -0.43172
C    -1.57892  -0.00848  -0.26219
C    -2.69669  -0.77412  -0.63832
C    -3.98143  -0.25311  -0.49001
C    -4.16773   1.03364   0.02839
C    -3.05397   1.79657   0.40125
C    -1.76453   1.28509   0.26221
C     1.03558  -2.89797  -0.01054
C     2.23214  -2.36353   0.32034
H     3.99323   2.58799   0.45186
H     2.42408   2.57391  -0.43556
H     2.43492   2.34347   1.32564
H    -2.53729  -1.77779  -1.04091
H    -4.84334  -0.85649  -0.78371
H    -5.17415   1.44022   0.13992
H    -3.19006   2.80162   0.80463
H    -0.89516   1.87819   0.55226
H     0.29955  -3.16803   0.74970
H     0.77199  -3.10994  -1.04909
H     2.53235  -2.24680   1.36455
H     3.00975  -2.19691  -0.43231
26

C     2.99168   2.13375   0.39928
C     3.13337   0.64478   0.19249
O     4.21531   0.08314   0.06184
C     1.88236  -0.08773   0.20125
N     0.70967   0.02314  -0.10580
N    -0.31838  -0.60524  -0.42583
C    -1.57680  -0.01184  -0.26065
C    -2.69521  -0.77619  -0.63763
C    -3.98004  -0.25432  -0.49036
C    -4.16678   1.03256   0.02748
C    -3.05274   1.79516   0.40026
C    -1.76356   1.28274   0.26245
C     1.02923  -2.87986  -0.01260
C     2.22610  -2.33368   0.31780
H     3.99085   2.58610   0.45087
H     2.42152   2.57087  -0.43611
H     2.43301   2.34084   1.32514
H    -2.53717  -1.77851  -1.04056
H    -4.84290  -0.85682  -0.78396
H    -5.17388   1.43996   0.13949
H    -3.18956   2.80132   0.80416
H    -0.89491   1.87745   0.55246
H     0.29943  -3.16571   0.74958
H     0.77122  -3.10692  -1.04941
H     2.53208  -2.24381   1.36387
H     3.00919  -2.19418  -0.43297
26

C     2.98443   2.12496   0.39713
C     3.13160   0.63512   0.19194
O     4.21895   0.08167   0.06415
C     1.88707  -0.11286   0.19910
N     0.71088   0.03328  -0.10442
N    -0.31368  -0.60753  -0.41993
C    -1.57467  -0.01520  -0.25912
C    -2.69374  -0.77827  -0.63695
C    -3.97865  -0.25552  -0.49071
C    -4.16583   1.03148   0.02656
C    -3.05152   1.79375   0.39927
C    -1.76259   1.28040   0.26269
C     1.02288  -2.86175  -0.01466
C     2.22007  -2.30383   0.31526
H     3.98847   2.58421   0.44987
H     2.41897   2.56783  -0.43666
H     2.43109   2.33821   1.32464
H    -2.53704  -1.77923  -1.04021
H    -4.84247  -0.85716  -0.78421
H    -5.17361   1.43969   0.13905
H    -3.18906   2.80101   0.80368
H    -0.89466   1.87670   0.55265
H     0.29932  -3.16340   0.74947
H     0.77046  -3.10389  -1.04973
H     2.53181  -2.24082   1.36318
H     3.00862  -2.19144  -0.43364
26

C     2.97718   2.11617   0.39498
C     3.12983   0.62545   0.19140
O     4.22259   0.08020   0.06646
C     1.89177  -0.13799   0.19695
N     0.71208   0.04341  -0.10304
N    -0.30897  -0.60982  -0.41404
C    -1.57254  -0.01856  -0.25758
C    -2.69227  -0.78034  -0.63627
C    -3.97726  -0.25672  -0.49106
C    -4.16488   1.03040   0.02565
C    -3.05030   1.79234   0.39828
C    -1.76162   1.27805   0.26293
C     1.01653  -2.84364  -0.01673
C     2.21403  -2.27397   0.31272
H     3.98609   2.58232   0.44887
H     2.41642   2.56479  -0.43721
H     2.42918   2.33558   1.32415
H    -2.53691  -1.77995  -1.03987
H    -4.84203  -0.85749  -0.78446
H    -5.17333   1.43943   0.13861
H    -3.18856   2.80071   0.80321
H    -0.89441   1.87596   0.55285
H     0.29920  -3.16108   0.74936
H     0.76970  -3.10087  -1.05004
H     2.53154  -2.23783   1.36249
H     3.00806  -2.18871  -0.43430
26

C     2.96994   2.10738   0.39283
C     3.12807   0.61578   0.19085
O     4.22622   0.07873   0.06877
C     1.89648  -0.16312   0.19480
N     0.71329   0.05354  -0.10166
N    -0.30426  -0.61211  -0.40814
C    -1.57042  -0.02192  -0.25604
C    -2.69079  -0.78241  -0.63559
C    -3.97587  -0.25793  -0.49140
C    -4.16394   1.02931   0.02474
C    -3.04907   1.79093   0.39729
C    -1.76065   1.27570   0.26317
C     1.01018  -2.82553  -0.01879
C     2.20799  -2.24412   0.31019
H     3.98372   2.58043   0.44788
H     2.41386   2.56174  -0.43776
H     2.42727   2.33294   1.32365
H    -2.53678  -1.78067  -1.03952
H    -4.84159  -0.85783  -0.78472
H    -5.17306   1.43916   0.13818
H    -3.18807   2.80040   0.80274
H    -0.89416   1.87521   0.55304
H     0.29908  -3.15876   0.74925
H     0.76894  -3.09784  -1.05036
H     2.53127  -2.23484   1.36180
H     3.00749  -2.18598  -0.43497
26

C     2.96269   2.09859   0.39068
C     3.12630   0.60612   0.19030
O     4.22986   0.07726   0.07108
C     1.90119  -0.18825   0.19266
N     0.71449   0.06367  -0.10027
N    -0.29955  -0.61440  -0.40225
C    -1.56829  -0.02528  -0.25451
C    -2.68932  -0.78448  -0.63491
C    -3.97448  -0.25913  -0.49175
C    -4.16299   1.02823   0.02383
C    -3.04785   1.78951   0.39630
C    -1.75968   1.27335   0.26341
C     1.00383  -2.80742  -0.02085
C     2.20195  -2.21427   0.30765
H     3.98134   2.57854   0.44688
H     2.41131   2.55870  -0.43831
H     2.42535   2.33031   1.32315
H    -2.53665  -1.78139  -1.03917
H    -4.84115  -0.85816  -0.78497
H    -5.17279   1.43890   0.13774
H    -3.18757   2.80010   0.80227
H    -0.89392   1.87447   0.55324
H     0.29896  -3.15645   0.74913
H     0.76817  -3.09482  -1.05068
H     2.53100  -2.23185   1.36112
H     3.00693  -2.18325  -0.43563
26

C     2.95544   2.08981   0.38853
C     3.12454   0.59645   0.18976
O     4.23350   0.07579   0.07339
C     1.90589  -0.21338   0.19051
N     0.71569   0.07381  -0.09889
N    -0.29485  -0.61669  -0.39635
C    -1.56617  -0.02864  -0.25297
C    -2.68784  -0.78656  -0.63423
C    -3.97309  -0.26034  -0.49210
C    -4.16204   1.02715   0.02292
C    -3.04662   1.78810   0.39531
C    -1.75870   1.27101   0.26365
C     0.99749  -2.78931  -0.02291
C     2.19591  -2.18442   0.30511
H     3.97896   2.57665   0.44589
H     2.40876   2.55566  -0.43886
H     2.42344   2.32768   1.32265
H    -2.53652  -1.78210  -1.03883
H    -4.84072  -0.85849  -0.78522
H    -5.17251   1.43863   0.13731
H    -3.18707   2.79979   0.80179
H    -0.89367   1.87372   0.55343
H     0.29884  -3.15413   0.74902
H     0.76741  -3.09179  -1.05100
H     2.53073  -2.22886   1.36043
H     3.00636  -2.18052  -0.43629
26

C     2.94820   2.08102   0.38638
C     3.12277   0.58678   0.18921
O     4.23713   0.07432   0.07570
C     1.91060  -0.23851   0.18836
N     0.71690   0.08394  -0.09751
N    -0.29014  -0.61898  -0.39046
C    -1.56404  -0.03200  -0.25143
C    -2.68637  -0.78863  -0.63354
C    -3.97170  -0.26154  -0.49244
C    -4.16109   1.02607   0.02201
C    -3.04540   1.78669   0.39432
C    -1.75773   1.26866   0.26389
C     0.99114  -2.77120  -0.02498
C     2.18987  -2.15457   0.30257
H     3.97658   2.57477   0.44489
H     2.40621   2.55262  -0.43941
H     2.42153   2.32504   1.32215
H    -2.53639  -1.78282  -1.03848
H    -4.84028  -0.85883  -0.78547
H    -5.17224   1.43837   0.13687
H    -3.18658   2.79948   0.80132
H    -0.89342   1.87298   0.55363
H     0.29873  -3.15181   0.74891
H     0.76665  -3.08877  -1.05132
H     2.53046  -2.22587   1.35974
H     3.00580  -2.17778  -0.43696
26

C     2.94095   2.07223   0.38423
C     3.12100   0.57712   0.18866
O     4.24077   0.07286   0.07801
C     1.91530  -0.26364   0.18621
N     0.71810   0.09407  -0.09613
N    -0.28543  -0.62127  -0.38456
C    -1.56192  -0.03537  -0.24990
C    -2.68489  -0.79070  -0.63286
C    -3.97031  -0.26274  -0.49279
C    -4.16014   1.02499   0.02110
C    -3.04418   1.78528   0.39333
C    -1.75676   1.26631   0.26413
C     0.98479  -2.75309  -0.02704
C     2.18383  -2.12472   0.30003
H     3.97420   2.57288   0.44389
H     2.40365   2.54958  -0.43996
H     2.41961   2.32241   1.32165
H    -2.53626  -1.78354  -1.03814
H    -4.83984  -0.85916  -0.78573
H    -5.17197   1.43810   0.13644
H    -3.18608   2.79918   0.80085
H    -0.89317   1.87223   0.55383
H     0.29861  -3.14949   0.74879
H     0.76589  -3.08574  -1.05164
H     2.53019  -2.22288   1.35905
H     3.00523  -2.17505  -0.43762
26

C     2.93371   2.06344   0.38208
C     3.11924   0.56745   0.18811
O     4.24441   0.07139   0.08032
C     1.92001  -0.28876   0.18406
N     0.71931   0.10420  -0.09474
N    -0.28072  -0.62356  -0.37867
C    -1.55979  -0.03873  -0.24836
C    -2.68342  -0.79277  -0.63218
C    -3.96892  -0.26395  -0.49314
C    -4.15919   1.02391   0.02019
C    -3.04295   1.78387   0.39234
C    -1.75579   1.26396   0.26438
C     0.97844  -2.73498  -0.02910
C     2.17780  -2.09487   0.29749
H     3.97182   2.57099   0.44290
H     2.40110   2.54653  -0.44051
H     2.41770   2.31978   1.32115
H    -2.53613  -1.78426  -1.03779
H    -4.83941  -0.85950  -0.78598
H    -5.17170   1.43783   0.13600
H    -3.18558   2.79887   0.80038
H    -0.89292   1.87149   0.55402
H     0.29849  -3.14718   0.74868
H     0.76513  -3.08272  -1.05196
H     2.52992  -2.21989   1.35836
H     3.00467  -2.17232  -0.43829
26

C     2.92646   2.05465   0.37993
C     3.11747   0.55778   0.18757
O     4.24804   0.06992   0.08263
C     1.92471  -0.31389   0.18191
N     0.72051   0.11434  -0.09336
N    -0.27601  -0.62585  -0.37277
C    -1.55767  -0.04209  -0.24682
C    -2.68195  -0.79485  -0.63150
C    -3.96753  -0.26515  -0.49349
C    -4.15825   1.02283   0.01928
C    -3.04173   1.78246   0.39135
C    -1.75482   1.26162   0.26462
C     0.97209  -2.71687  -0.03116
C     2.17176  -2.06502   0.29496
H     3.96944   2.56910   0.44190
H     2.39855   2.54349  -0.44106
H     2.41579   2.31715   1.32065
H    -2.53601  -1.78498  -1.03744
H    -4.83897  -0.85983  -0.78623
H    -5.17142   1.43757   0.13557
H    -3.18509   2.79857   0.79990
H    -0.89267   1.87074   0.55422
H     0.29837  -3.14486   0.74857
H     0.76436  -3.07969  -1.05228
H     2.52965  -2.21691   1.35768
H     3.00410  -2.16959  -0.43895
26

C     2.91921   2.04587   0.37778
C     3.11571   0.54812   0.18702
O     4.25168   0.06845   0.08494
C     1.92942  -0.33902   0.17976
N     0.72172   0.12447  -0.09198
N    -0.27131  -0.62814  -0.36688
C    -1.55554  -0.04545  -0.24529
C    -2.68047  -0.79692  -0.63082
C    -3.96614  -0.26635  -0.49383
C    -4.15730   1.02175   0.01836
C    -3.04051   1.78105   0.39036
C    -1.75385   1.25927   0.26486
C     0.96574  -2.69877  -0.03323
C     2.16572  -2.03517   0.29242
H     3.96707   2.56721   0.44091
H     2.39599   2.54045  -0.44161
H     2.41387   2.31451   1.32015
H    -2.53588  -1.78570  -1.03710
H    -4.83853  -0.86016  -0.78648
H    -5.17115   1.43730   0.13513
H    -3.18459   2.79826   0.79943
H    -0.89242   1.87000   0.55441
H     0.29825  -3.14254   0.74846
H     0.76360  -3.07667  -1.05260
H     2.52938  -2.21392   1.35699
H     3.00353  -2.16685  -0.43962
26

C     2.92646   2.05465   0.37993
C     3.11747   0.55778   0.18757
O     4.24804   0.06992   0.08263
C     1.92471  -0.31389   0.18191
N     0.72051   0.11434  -0.09336
N    -0.27601  -0.62585  -0.37277
C    -1.55767  -0.04209  -0.24682
C    -2.68195  -0.79485  -0.63150
C    -3.96753  -0.26515  -0.49349
C    -4.15825   1.02283   0.01928
C    -3.04173   1.78246   0.39135
C    -1.75482   1.26162   0.26462
C     0.97209  -2.71687  -0.03116
C     2.17176  -2.06502   0.29496
H     3.96944   2.56910   0.44190
H     2.39855   2.54349  -0.44106
H     2.41579   2.31715   1.32065
H    -2.53601  -1.78498  -1.03744
H    -4.83897  -0.85983  -0.78623
H    -5.17142   1.43757   0.13557
H    -3.18509   2.79857   0.79990
H    -0.89267   1.87074   0.55422
H     0.29837  -3.14486   0.74857
H     0.76436  -3.07969  -1.05228
H     2.52965  -2.21691   1.35768
H     3.00410  -2.16959  -0.43895
26

C     2.93371   2.06344   0.38208
C     3.11924   0.56745   0.18811
O     4.24441   0.07139   0.08032
C     1.92001  -0.28876   0.18406
N     0.71931   0.10420  -0.09474
N    -0.28072  -0.62356  -0.37867
C    -1.55979  -0.03873  -0.24836
C    -2.68342  -0.79277  -0.63218
C    -3.96892  -0.26395  -0.49314
C    -4.15919   1.02391   0.02019
C    -3.04295   1.78387   0.39234
C    -1.75579   1.26396   0.26438
C     0.97844  -2.73498  -0.02910
C     2.17780  -2.09487   0.29749
H     3.97182   2.57099   0.44290
H     2.40110   2.54653  -0.44051
H     2.41770   2.31978   1.32115
H    -2.53613  -1.78426  -1.03779
H    -4.83941  -0.85950  -0.78598
H    -5.17170   1.43783   0.13600
H    -3.18558   2.79887   0.80038
H    -0.89292   1.87149   0.55402
H     0.29849  -3.14718   0.74868
H     0.76513  -3.08272  -1.05196
H     2.52992  -2.21989   1.35836
H     3.00467  -2.17232  -0.43829
26

C     2.94095   2.07223   0.38423
C     3.12100   0.57712   0.18866
O     4.24077   0.07286   0.07801
C     1.91530  -0.26364   0.18621
N     0.71810   0.09407  -0.09613
N    -0.28543  -0.62127  -0.38456
C    -1.56192  -0.03537  -0.24990
C    -2.68489  -0.79070  -0.63286
C    -3.97031  -0.26274  -0.49279
C    -4.16014   1.02499   0.02110
C    -3.04418   1.78528   0.39333
C    -1.75676   1.26631   0.26413
C     0.98479  -2.75309  -0.02704
C     2.18383  -2.12472   0.30003
H     3.97420   2.57288   0.44389
H     2.40365   2.54958  -0.43996
H     2.41961   2.32241   1.32165
H    -2.53626  -1.78354  -1.03814
H    -4.83984  -0.85916  -0.78573
H    -5.17197   1.43810   0.13644
H    -3.18608   2.79918   0.80085
H    -0.89317   1.87223   0.55383
H     0.29861  -3.14949   0.74879
H     0.76589  -3.08574  -1.05164
H     2.53019  -2.22288   1.35905
H     3.00523  -2.17505  -0.43762
26

C     2.94820   2.08102   0.38638
C     3.12277   0.58678   0.18921
O     4.23713   0.07432   0.07570
C     1.91060  -0.23851   0.18836
N     0.71690   0.08394  -0.09751
N    -0.29014  -0.61898  -0.39046
C    -1.56404  -0.03200  -0.25143
C    -2.68637  -0.78863  -0.63354
C    -3.97170  -0.26154  -0.49244
C    -4.16109   1.02607   0.02201
C    -3.04540   1.78669   0.39432
C    -1.75773   1.26866   0.26389
C     0.99114  -2.77120  -0.02498
C     2.18987  -2.15457   0.30257
H     3.97658   2.57477   0.44489
H     2.40621   2.55262  -0.43941
H     2.42153   2.32504   1.32215
H    -2.53639  -1.78282  -1.03848
H    -4.84028  -0.85883  -0.78547
H    -5.17224   1.43837   0.13687
H    -3.18658   2.79948   0.80132
H    -0.89342   1.87298   0.55363
H     0.29873  -3.15181   0.74891
H     0.76665  -3.08877  -1.05132
H     2.53046  -2.22587   1.35974
H     3.00580  -2.17778  -0.43696
26

C     2.95544   2.08981   0.38853
C     3.12454   0.59645   0.18976
O     4.23350   0.07579   0.07339
C     1.90589  -0.21338   0.19051
N     0.71569   0.07381  -0.09889
N    -0.29485  -0.61669  -0.39635
C    -1.56617  -0.02864  -0.25297
C    -2.68784  -0.78656  -0.63423
C    -3.97309  -0.26034  -0.49210
C    -4.16204   1.02715   0.02292
C    -3.04662   1.78810   0.39531
C    -1.75870   1.27101   0.26365
C     0.99749  -2.78931  -0.02291
C     2.19591  -2.18442   0.30511
H     3.97896   2.57665   0.44589
H     2.40876   2.55566  -0.43886
H     2.42344   2.32768   1.32265
H    -2.53652  -1.78210  -1.03883
H    -4.84072  -0.85849  -0.78522
H    -5.17251   1.43863   0.13731
H    -3.18707   2.79979   0.80179
H    -0.89367   1.87372   0.55343
H     0.29884  -3.15413   0.74902
H     0.76741  -3.09179  -1.05100
H     2.53073  -2.22886   1.36043
H     3.00636  -2.18052  -0.43629
26

C     2.96269   2.09859   0.39068
C     3.12630   0.60612   0.19030
O     4.22986   0.07726   0.07108
C     1.90119  -0.18825   0.19266
N     0.71449   0.06367  -0.10027
N    -0.29955  -0.61440  -0.40225
C    -1.56829  -0.02528  -0.25451
C    -2.68932  -0.78448  -0.63491
C    -3.97448  -0.25913  -0.49175
C    -4.16299   1.02823   0.02383
C    -3.04785   1.78951   0.39630
C    -1.75968   1.27335   0.26341
C     1.00383  -2.80742  -0.02085
C     2.20195  -2.21427   0.30765
H     3.98134   2.57854   0.44688
H     2.41131   2.55870  -0.43831
H     2.42535   2.33031   1.32315
H    -2.53665  -1.78139  -1.03917
H    -4.84115  -0.85816  -0.78497
H    -5.17279   1.43890   0.13774
H    -3.18757   2.80010   0.80227
H    -0.89392   1.87447   0.55324
H     0.29896  -3.15645   0.74913
H     0.76817  -3.09482  -1.05068
H     2.53100  -2.23185   1.36112
H     3.00693  -2.18325  -0.43563
26

C     2.96994   2.10738   0.39283
C     3.12807   0.61578   0.19085
O     4.22622   0.07873   0.06877
C     1.89648  -0.16312   0.19480
N     0.71329   0.05354  -0.10166
N    -0.30426  -0.61211  -0.40814
C    -1.57042  -0.02192  -0.25604
C    -2.69079  -0.78241  -0.63559
C    -3.97587  -0.25793  -0.49140
C    -4.16394   1.02931   0.02474
C    -3.04907   1.79093   0.39729
C    -1.76065   1.27570   0.26317
C     1.01018  -2.82553  -0.01879
C     2.20799  -2.24412   0.31019
H     3.98372   2.58043   0.44788
H     2.41386   2.56174  -0.43776
H     2.42727   2.33294   1.32365
H    -2.53678  -1.78067  -1.03952
H    -4.84159  -0.85783  -0.78472
H    -5.17306   1.43916   0.13818
H    -3.18807   2.80040   0.80274
H    -0.89416   1.87521   0.55304
H     0.29908  -3.15876   0.74925
H     0.76894  -3.09784  -1.05036
H     2.53127  -2.23484   1.36180
H     3.00749  -2.18598  -0.43497
26

C     2.97718   2.11617   0.39498
C     3.12983   0.62545   0.19140
O     4.22259   0.08020   0.06646
C     1.89177  -0.13799   0.19695
N     0.71208   0.04341  -0.10304
N    -0.30897  -0.60982  -0.41404
C    -1.57254  -0.01856  -0.25758
C    -2.69227  -0.78034  -0.63627
C    -3.97726  -0.25672  -0.49106
C    -4.16488   1.03040   0.02565
C    -3.05030   1.79234   0.39828
C    -1.76162   1.27805   0.26293
C     1.01653  -2.84364  -0.01673
C     2.21403  -2.27397   0.31272
H     3.98609   2.58232   0.44887
H     2.41642   2.56479  -0.43721
H     2.42918   2.33558   1.32415
H    -2.53691  -1.77995  -1.03987
H    -4.84203  -0.85749  -0.78446
H    -5.17333   1.43943   0.13861
H    -3.18856   2.80071   0.80321
H    -0.89441   1.87596   0.55285
H     0.29920  -3.16108   0.74936
H     0.76970  -3.10087  -1.05004
H     2.53154  -2.23783   1.36249
H     3.00806  -2.18871  -0.43430
26

C     2.98443   2.12496   0.39713
C     3.13160   0.63512   0.19194
O     4.21895   0.08167   0.06415
C     1.88707  -0.11286   0.19910
N     0.71088   0.03328  -0.10442
N    -0.31368  -0.60753  -0.41993
C    -1.57467  -0.01520  -0.25912
C    -2.69374  -0.77827  -0.63695
C    -3.97865  -0.25552  -0.49071
C    -4.16583   1.03148   0.02656
C    -3.05152   1.79375   0.39927
C    -1.76259   1.28040   0.26269
C     1.02288  -2.86175  -0.01466
C     2.22007  -2.30383   0.31526
H     3.98847   2.58421   0.44987
H     2.41897   2.56783  -0.43666
H     2.43109   2.33821   1.32464
H    -2.53704  -1.77923  -1.04021
H    -4.84247  -0.85716  -0.78421
H    -5.17361   1.43969   0.13905
H    -3.18906   2.80101   0.80368
H    -0.89466   1.87670   0.55265
H     0.29932  -3.16340   0.74947
H     0.77046  -3.10389  -1.04973
H     2.53181  -2.24082   1.36318
H     3.00862  -2.19144  -0.43364
26

C     2.99168   2.13375   0.39928
C     3.13337   0.64478   0.19249
O     4.21531   0.08314   0.06184
C     1.88236  -0.08773   0.20125
N     0.70967   0.02314  -0.10580
N    -0.31838  -0.60524  -0.42583
C    -1.57680  -0.01184  -0.26065
C    -2.69521  -0.77619  -0.63763
C    -3.98004  -0.25432  -0.49036
C    -4.16678   1.03256   0.02748
C    -3.05274   1.79516   0.40026
C    -1.76356   1.28274   0.26245
C     1.02923  -2.87986  -0.01260
C     2.22610  -2.33368   0.31780
H     3.99085   2.58610   0.45087
H     2.42152   2.57087  -0.43611
H     2.43301   2.34084   1.32514
H    -2.53717  -1.77851  -1.04056
H    -4.84290  -0.85682  -0.78396
H    -5.17388   1.43996   0.13949
H    -3.18956   2.80132   0.80416
H    -0.89491   1.87745   0.55246
H     0.29943  -3.16571   0.74958
H     0.77122  -3.10692  -1.04941
H     2.53208  -2.24381   1.36387
H     3.00919  -2.19418  -0.43297
26

C     2.99892   2.14253   0.40143
C     3.13513   0.65445   0.19304
O     4.21168   0.08461   0.05953
C     1.87766  -0.06260   0.20340
N     0.70847   0.01301  -0.10719
N    -0.32309  -0.60295  -0.43172
C    -1.57892  -0.00848  -0.26219
C    -2.69669  -0.77412  -0.63832
C    -3.98143  -0.25311  -0.49001
C    -4.16773   1.03364   0.02839
C    -3.05397   1.79657   0.40125
C    -1.76453   1.28509   0.26221
C     1.03558  -2.89797  -0.01054
C     2.23214  -2.36353   0.32034
H     3.99323   2.58799   0.45186
H     2.42408   2.57391  -0.43556
H     2.43492   2.34347   1.32564
H    -2.53729  -1.77779  -1.04091
H    -4.84334  -0.85649  -0.78371
H    -5.17415   1.44022   0.13992
H    -3.19006   2.80162   0.80463
H    -0.89516   1.87819   0.55226
H     0.29955  -3.16803   0.74970
H     0.77199  -3.10994  -1.04909
H     2.53235  -2.24680   1.36455
H     3.00975  -2.19691  -0.43231
26

C     3.00617   2.15132   0.40358
C     3.13690   0.66412   0.19358
O     4.20804   0.08608   0.05723
C     1.87295  -0.03747   0.20555
N     0.70726   0.00288  -0.10857
N    -0.32780  -0.60066  -0.43762
C    -1.58105  -0.00511  -0.26373
C    -2.69816  -0.77205  -0.63900
C    -3.98283  -0.25191  -0.48967
C    -4.16868   1.03472   0.02930
C    -3.05519   1.79798   0.40224
C    -1.76550   1.28744   0.26197
C     1.04193  -2.91608  -0.00848
C     2.23818  -2.39338   0.32288
H     3.99561   2.58988   0.45286
H     2.42663   2.57696  -0.43501
H     2.43683   2.34611   1.32614
H    -2.53742  -1.77708  -1.04125
H    -4.84378  -0.85616  -0.78346
H    -5.17442   1.44049   0.14036
H    -3.19055   2.80193   0.80510
H    -0.89541   1.87894   0.55206
H     0.29967  -3.17035   0.74981
H     0.77275  -3.11297  -1.04877
H     2.53262  -2.24979   1.36524
H     3.01032  -2.19964  -0.43164
26

C     3.01342   2.16011   0.40573
C     3.13866   0.67378   0.19413
O     4.20440   0.08755   0.05492
C     1.86824  -0.01234   0.20770
N     0.70606  -0.00725  -0.10995
N    -0.33251  -0.59837  -0.44351
C    -1.58317  -0.00175  -0.26526
C    -2.69964  -0.76998  -0.63968
C    -3.98422  -0.25071  -0.48932
C    -4.16962   1.03580   0.03021
C    -3.05641   1.79939   0.40323
C    -1.76647   1.28979   0.26173
C     1.04828  -2.93419  -0.00641
C     2.24422  -2.42323   0.32541
H     3.99799   2.59177   0.45386
H     2.42918   2.58000  -0.43446
H     2.43874   2.34874   1.32664
H    -2.53755  -1.77636  -1.04160
H    -4.84421  -0.85582  -0.78320
H    -5.17470   1.44076   0.14079
H    -3.19105   2.80224   0.80557
H    -0.89566   1.87968   0.55187
H     0.29979  -3.17267   0.74992
H     0.77351  -3.11599  -1.04845
H     2.53289  -2.25278   1.36593
H     3.01088  -2.20237  -0.43098
26

C     3.02066   2.16890   0.40788
C     3.14043   0.68345   0.19468
O     4.20076   0.08902   0.05261
C     1.86354   0.01279   0.20985
N     0.70485  -0.01739  -0.11133
N    -0.33722  -0.59608  -0.44941
C    -1.58530   0.00161  -0.26680
C    -2.70111  -0.76790  -0.64036
C    -3.98561  -0.24950  -0.48897
C    -4.17057   1.03688   0.03112
C    -3.05764   1.80080   0.40422
C    -1.76744   1.29213   0.26148
C     1.05463  -2.95230  -0.00435
C     2.25026  -2.45308   0.32795
H     4.00037   2.59366   0.45485
H     2.43173   2.58304  -0.43391
H     2.44066   2.35137   1.32714
H    -2.53768  -1.77564  -1.04195
H    -4.84465  -0.85549  -0.78295
H    -5.17497   1.44102   0.14123
H    -3.19155   2.80254   0.80605
H    -0.89591   1.88043   0.55167
H     0.29991  -3.17498   0.75004
H     0.77427  -3.11902  -1.04813
H     2.53316  -2.25577   1.36662
H     3.01145  -2.20510  -0.43032
26

C     3.02791   2.17768   0.41003
C     3.14220   0.69311   0.19522
O     4.19713   0.09048   0.05030
C     1.85883   0.03792   0.21200
N     0.70365  -0.02752  -0.11272
N    -0.34192  -0.59379  -0.45530
C    -1.58742   0.00497  -0.26834
C    -2.70259  -0.76583  -0.64104
C    -3.98700  -0.24830  -0.48862
C    -4.17152   1.03796   0.03203
C    -3.05886   1.80221   0.40521
C    -1.76841   1.29448   0.26124
C     1.06098  -2.97041  -0.00229
C     2.25630  -2.48293   0.33049
H     4.00275   2.59555   0.45585
H     2.43429   2.58608  -0.43336
H     2.44257   2.35400   1.32764
H    -2.53781  -1.77492  -1.04229
H    -4.84509  -0.85515  -0.78270
H    -5.17524   1.44129   0.14166
H    -3.19204   2.80285   0.80652
H    -0.89616   1.88117   0.55148
H     0.30002  -3.17730   0.75015
H     0.77503  -3.12204  -1.04781
H     2.53343  -2.25876   1.36731
H     3.01202  -2.20784  -0.42965
26

C     3.03515   2.18647   0.41218
C     3.14396   0.70278   0.19577
O     4.19349   0.09195   0.04799
C     1.85413   0.06305   0.21415
N     0.70245  -0.03765  -0.11410
N    -0.34663  -0.59150  -0.46119
C    -1.58955   0.00833  -0.26987
C    -2.70406  -0.76376  -0.64173
C    -3.98839  -0.24709  -0.48828
C    -4.17247   1.03904   0.03294
C    -3.06008   1.80363   0.40620
C    -1.76938   1.29683   0.26100
C     1.06733  -2.98852  -0.00023
C     2.26234  -2.51278   0.33303
H     4.00512   2.59743   0.45684
H     2.43684   2.58912  -0.43281
H     2.44448   2.35664   1.32814
H    -2.53794  -1.77420  -1.04264
H    -4.84553  -0.85482  -0.78245
H    -5.17552   1.44155   0.14210
H    -3.19254   2.80315   0.80699
H    -0.89641   1.88192   0.55128
H     0.30014  -3.17962   0.75026
H     0.77580  -3.12507  -1.04749
H     2.53370  -2.26174   1.36799
H     3.01258  -2.21057  -0.42899
26

C     3.04240   2.19526   0.41433
C     3.14573   0.71245   0.19632
O     4.18985   0.09342   0.04568
C     1.84942   0.08818   0.21630
N     0.70124  -0.04778  -0.11548
N    -0.35134  -0.58921  -0.46709
C    -1.59168   0.01169  -0.27141
C    -2.70554  -0.76169  -0.64241
C    -3.98978  -0.24589  -0.48793
C    -4.17342   1.04013   0.03385
C    -3.06131   1.80504   0.40718
C    -1.77035   1.29918   0.26076
C     1.07368  -3.00662   0.00184
C     2.26837  -2.54263   0.33557
H     4.00750   2.59932   0.45784
H     2.43939   2.59217  -0.43226
H     2.44640   2.35927   1.32864
H    -2.53807  -1.77349  -1.04298
H    -4.84596  -0.85449  -0.78219
H    -5.17579   1.44182   0.14253
H    -3.19304   2.80346   0.80747
H    -0.89666   1.88266   0.55109
H     0.30026  -3.18193   0.75037
H     0.77656  -3.12809  -1.04717
H     2.53397  -2.26473   1.36868
H     3.01315  -2.21330  -0.42832
26

C     3.04965   2.20405   0.41648
C     3.14749   0.72211   0.19686
O     4.18622   0.09489   0.04337
C     1.84472   0.11331   0.21845
N     0.70004  -0.05792  -0.11686
N    -0.35605  -0.58692  -0.47298
C    -1.59380   0.01505  -0.27295
C    -2.70701  -0.75961  -0.64309
C    -3.99117  -0.24469  -0.48758
C    -4.17437   1.04121   0.03477
C    -3.06253   1.80645   0.40817
C    -1.77132   1.30153   0.26052
C     1.08002  -3.02473   0.00390
C     2.27441  -2.57248   0.33811
H     4.00988   2.60121   0.45884
H     2.44195   2.59521  -0.43171
H     2.44831   2.36190   1.32914
H    -2.53820  -1.77277  -1.04333
H    -4.84640  -0.85415  -0.78194
H    -5.17606   1.44208   0.14297
H    -3.19353   2.80377   0.80794
H    -0.89691   1.88341   0.55089
H     0.30038  -3.18425   0.75049
H     0.77732  -3.13112  -1.04685
H     2.53424  -2.26772   1.36937
H     3.01371  -2.21603  -0.42766
26

C     3.05689   2.21284   0.41863
C     3.14926   0.73178   0.19741
O     4.18258   0.09636   0.04106
C     1.84001   0.13844   0.22060
N     0.69883  -0.06805  -0.11825
N    -0.36076  -0.58463  -0.47888
C    -1.59593   0.01841  -0.27449
C    -2.70848  -0.75754  -0.64377
C    -3.99256  -0.24348  -0.48724
C    -4.17531   1.04229   0.03568
C    -3.06375   1.80786   0.40916
C    -1.77229   1.30387   0.26028
C     1.08637  -3.04284   0.00596
C     2.28045  -2.60233   0.34064
H     4.01226   2.60310   0.45983
H     2.44450   2.59825  -0.43116
H     2.45022   2.36454   1.32964
H    -2.53833  -1.77205  -1.04368
H    -4.84684  -0.85382  -0.78169
H    -5.17633   1.44235   0.14340
H    -3.19403   2.80407   0.80841
H    -0.89716   1.88415   0.55069
H     0.30050  -3.18657   0.75060
H     0.77808  -3.13414  -1.04653
H     2.53451  -2.27071   1.37006
H     3.01428  -2.21877  -0.42699
