16

C 5.759869921 1.447320509 0.702226536
C 3.086580292 1.754471472 0.098359300
C 0.891583009 2.014671169 -0.412396860
C -2.597569475 -3.843762955 1.333555878
C -3.203336604 -2.017128512 -0.261330415
C -3.384717582 0.723166006 0.450489864
N -1.596667794 2.360895621 -0.874797158
H 6.575104083 3.180422541 1.469256241
H 6.838582398 0.915745898 -0.973792029
H 6.013345916 -0.046584092 2.101759613
H -2.197696662 -3.444195711 3.304801178
H -2.473186965 -5.798020619 0.737043550
H -3.571369214 -2.466854247 -2.233914038
H -3.063097138 0.949699457 2.475773943
H -5.277072033 1.444470272 0.043155543
H -2.006483515 2.636553712 -2.714326506

