11

C -0.691761158 2.872819083 -1.203602870
H -2.295399244 2.866486252 -2.468872758
C 1.751171896 2.925830682 -1.857628106
H 2.489766722 2.970712736 -3.763436253
C 3.306854649 2.915777415 0.433452339
H 5.350908432 2.951206869 0.451286025
C 1.797098666 2.856667783 2.462201306
H 2.383374291 2.835222491 4.418930505
C -0.903631789 2.824554458 1.617631546
H -1.958550385 4.453569336 2.341232284
H -1.903182392 1.139742524 2.289696240

