12

C -3.626914426 -0.720861012 0.650472702
N -1.538387091 0.565960993 0.895481457
C 0.665703705 0.114610756 -0.439966339
O 0.489532872 -2.053205028 -1.947280228
C 3.054931990 0.507986520 1.037168020
H 0.535297182 0.190820595 -2.726164733
H -5.278872167 -0.118621605 1.681794249
H -3.607611648 -2.293757734 -0.643534667
H -1.505750651 2.040251805 2.108802471
H 4.664054988 0.553222879 -0.242509442
H 3.338201464 -1.065130845 2.356886416
H 3.028576055 2.279425635 2.100135204

