15

C 4.809341535 -0.313734485 1.330792701
N 2.200183504 -0.319420331 0.542765267
C 1.518549199 1.225612435 -1.136558260
C -1.109636862 1.271434363 -2.094263107
C -2.988878541 -0.422484331 -1.038910952
C -4.672596814 -1.084891995 1.070107515
N -2.208086319 -1.204715749 -3.110757656
H 5.959869558 1.121654254 0.369201557
H 5.628007723 -2.173475343 0.970681823
H 4.904005457 0.003165896 3.367980864
H 2.841080320 2.598595256 -1.963958176
H -1.677517723 2.962895392 -3.109501951
H -6.065038221 0.407443132 1.361586129
H -3.547845374 -1.246633087 2.789560226
H -5.631749079 -2.867505022 0.696531110

