14

C -1.447874954 1.953036485 -0.837569345
C 0.141830881 -0.438842443 -0.100109508
C 2.954650971 0.004029917 0.152478788
N -0.408728297 -2.658973045 -1.570996753
C -1.359901343 0.115438323 2.116184346
N -2.705158481 0.548392229 3.919268096
H -2.938721354 2.059019980 1.994069582
H -2.844487383 1.514203434 -2.278271693
H -0.281797131 3.590624862 -1.248140144
H 3.739594769 0.270394807 -1.733739702
H 3.878971746 -1.616634319 1.034369392
H 3.343825648 1.672815839 1.295219911
H 0.271921876 -4.241839867 -0.741731412
H -2.285545437 -2.881018964 -1.847069923

