14

C -2.797346559 -1.952090148 0.027183767
C -0.626983519 -1.102952920 -1.614071038
C 0.154820972 2.616935464 0.287708705
N 2.518885418 2.439408242 1.049189815
C 3.784202888 -0.618352875 1.030784714
O 4.598433851 -1.716658165 2.699102551
O 1.448566027 -2.207417904 -1.520093408
H -2.149507682 -2.346144551 1.944515597
H -3.550346162 -3.710748629 -0.753841552
H -4.323438921 -0.568107798 0.077436385
H -1.111030989 -0.081100393 -3.355409177
H -1.299175146 2.256173651 1.681610454
H -0.327127315 3.746130878 -1.351766961
H 3.744925252 3.239906018 -0.191466900

