9

N 1.161246058 1.805394318 1.619107630
C 0.060427753 -0.401014340 0.975674291
C 0.736659614 -1.900314770 -0.970251873
H -0.267801914 -3.632196966 -1.350678629
C 2.792821761 -1.212740074 -2.546798090
N 4.479066731 -0.551920914 -3.755883131
H -1.512554383 -0.961295781 2.161851279
H 0.592502159 2.770051109 3.140826411
H 2.666744960 2.449579183 0.656369460

