15

C -4.662081207 -2.079155125 1.748123712
C -2.298030688 -1.309643888 1.479640608
O -0.365640708 -2.963035988 1.176033618
C 1.905743916 -2.082869608 0.151091918
H 3.388165671 -3.427858764 0.579115301
C 2.020131967 -0.802253293 -2.422796321
H 3.511699203 -1.342170289 -3.718941064
H 0.220202774 -0.371193744 -3.309315677
C 2.614440572 0.576495177 -0.082903891
C 3.267051196 2.714221456 0.996867040
H 3.410050344 2.872560852 3.034380859
H 3.676000610 4.384232129 -0.117128022
H -1.764843611 0.672154323 1.554707937
H -5.155295228 -4.062144846 1.664686464
H -6.134257113 -0.707897567 2.092777064

