16

C -3.155939117 2.020313022 0.289391071
C -2.555509047 -0.746536173 0.826482832
C 0.264155518 -1.325350441 1.045027240
C 1.701724151 -0.828301372 -1.377077083
C 6.157484984 -0.204088532 -0.736990241
O 4.285298447 -1.708144590 -1.107447086
H -2.476009837 2.617999871 -1.565191004
H -2.290171581 3.255150363 1.700597836
H -5.189948099 2.354003128 0.329561962
H -3.386593514 -1.938879394 -0.646343744
H -3.463895368 -1.310379804 2.593065691
H 0.534564687 -3.307418543 1.558123372
H 1.102305613 -0.194070999 2.561738397
H 0.906884877 -1.888964716 -2.957995503
H 5.369569345 1.776382865 -0.738525190
H 1.776383999 1.178881133 -1.860591933

