16

C -3.012286276 2.046812443 0.292845963
C -2.576064089 -0.777169635 0.662798365
C 0.159196009 -1.478409754 1.247462488
C 1.967657409 -0.876083721 -0.880773171
C 5.117964519 0.840509476 -0.796104332
O 4.475849793 -1.633310075 -0.255133474
H -2.038762286 2.771550550 -1.377426078
H -2.342200334 3.122200136 1.923123273
H -5.017591471 2.457306292 0.047734028
H -3.209354418 -1.807064364 -1.016655364
H -3.754772161 -1.450476276 2.218898671
H 0.317380447 -3.504376250 1.617345121
H 0.822367500 -0.505954366 2.944814701
H 1.435690983 -1.597964241 -2.738685189
H 5.295187873 0.912536670 -2.913449688
H 2.040937795 1.287949851 -1.015160553

