15

C 4.704628579 0.509737465 0.272887602
C 2.349944715 -1.143617955 0.133798940
C 0.092654651 0.088964734 1.294381213
N -2.136715597 -0.373499474 0.451998603
C -3.748395885 -1.538066366 -1.122959394
H -3.732157318 -3.567041269 -1.373474263
C -4.779637554 -0.077225113 1.059189055
H -5.308165945 -0.946621944 2.853647264
H -5.617043324 1.766725476 0.715018376
H 0.261559525 1.447422969 2.816564733
H 1.895802444 -1.593474573 -1.835353318
H 2.719720087 -2.960686170 1.061132128
H 4.421934187 2.288374490 -0.732926970
H 6.329594682 -0.443270298 -0.563227202
H 5.181213766 0.960366564 2.230573040

