17

C 4.609418565 0.755840958 -0.084875367
C 2.411666024 -1.086482199 0.150857385
C 0.087579924 0.127797397 1.199209654
N -2.140630712 -0.894921116 0.764534681
C -4.661653392 0.132607732 0.838177194
C -3.525621968 -1.176321045 -1.379808966
H 4.137103460 2.287758363 -1.381245422
H 6.291896176 -0.197431688 -0.797551654
H 5.087553894 1.591197528 1.741560655
H 1.940327491 -1.901581114 -1.690265343
H 2.956731692 -2.670347817 1.371852009
H -0.731922827 2.166571002 -1.778187005
H 0.234384394 1.311909821 2.869630397
H -5.928101013 -0.769333017 2.177168850
H -4.808625424 2.187230659 0.713068160
H -4.059353248 -2.927326041 -2.282713588
H -1.871662610 1.242095684 -2.527407837

