10

N 3.560604371 0.001856335 -0.217203741
C 1.339528603 -0.530442627 0.984911442
O 1.193595391 -1.473450961 3.040134830
N -0.791372836 0.083482355 -0.498693924
C -3.188304400 -0.083302094 0.302375002
O -4.928796358 0.511106572 -1.327087610
H 5.126106178 -0.211648551 0.834148261
H 3.639427701 1.243707829 -1.647822624
H -0.569460955 0.635987100 -2.324868805
H -5.461984984 -0.142967192 0.789168621

