14

C 3.139134463 1.812310792 0.479634222
N 1.004406310 0.557078204 1.663386710
C -1.155337564 -3.437350442 -2.793258552
O -0.742204335 -0.927789254 -3.320213803
N -2.567414548 -2.876517882 -0.764090708
C -2.357223543 -0.198392122 -1.194592411
N -1.352824697 1.306765004 0.726164472
H 3.255588137 1.244201690 -1.495190522
H 4.862989877 1.208252976 1.433166649
H 3.026356534 3.887659365 0.575204608
H 0.995274719 0.823229140 3.551310395
H -3.480029113 -3.947799314 0.503979469
H -4.067247617 0.703600764 -1.915348770
H -1.488698670 3.178203417 0.329996429

