14

C 3.015480612 1.434394631 0.432695013
N 0.893601652 -0.300811461 0.750532358
C 0.355486983 -2.082917702 -1.155209422
O -0.506071547 -0.484854534 -3.156345881
N -2.262200706 -2.852997009 -0.675683897
C -2.727810968 -0.231457549 -1.536512615
N -2.200057686 1.437548527 0.483373499
H 3.000197490 2.103691178 -1.508948370
H 4.780847016 0.446932172 0.811266965
H 2.794403065 3.005774677 1.742206129
H 0.777916568 -1.022557017 2.520967442
H -2.704689734 -3.155416929 1.170740533
H -4.470243769 0.188384719 -2.549056974
H -1.604046343 3.116038949 -0.246272831

