13

C -1.719097594 -2.769689264 0.484649461
C -0.559927192 2.868774616 0.480736178
C 1.369410880 0.991318974 1.096715274
C 0.551630407 -1.344326655 -0.550300871
C 0.015965124 4.528284232 -1.479601547
N 0.293981405 6.009246665 -3.076404721
H -1.357390861 -3.443063273 2.400924839
H -3.403509454 -1.587026922 0.534902135
H -2.122116895 -4.412793261 -0.694366221
H 1.249144609 0.406922890 3.070141224
H 3.311752195 1.498278466 0.604484686
H 2.213593813 -2.565076334 -0.599805176
H 0.218251764 -0.752968461 -2.501026939

