13

C -2.156622747 -1.547238171 0.129974172
C -0.350976641 1.511336984 1.009238964
C 2.360779119 0.867071315 1.193423596
C 1.266121284 -1.229493536 -0.332710227
C -0.961782083 3.143148090 -1.051979107
N -1.588096601 4.567883934 -2.580728179
H -2.474277223 -2.401938545 1.964497598
H -3.710932046 -0.298000153 -0.342196728
H -2.164687568 -3.005263014 -1.340491664
H 3.037046828 0.366993714 3.064844775
H 3.660632658 2.051703584 0.140764584
H 1.542074438 -3.093601097 0.461018511
H 1.568117831 -1.099140927 -2.350187242

