12

N -2.440443586 -1.554249225 -0.047517485
C -0.310919077 -0.400814313 -1.353841785
C -2.770730125 0.918183606 -1.215854418
C 1.724756662 0.564957209 3.095124197
N 3.177913363 -0.926905316 1.869986669
C 1.840744537 0.636709070 0.142336250
H -2.232021609 -1.360698940 1.851917505
H 0.187372544 -1.337295098 -3.112845803
H -4.004208678 0.957088362 -2.849429792
H -2.875186551 2.560323559 0.006350992
H 4.372984914 -2.393563241 2.092021401
H 2.925702861 2.137383879 -0.744625396

