10

O 2.961279639 -0.457500918 1.989249175
C 1.993261498 -0.784089812 -0.466118977
C -0.699300862 -0.052600508 -0.719936558
O -1.582230343 1.071870365 -2.811505200
C -2.826801701 0.165193641 0.695532371
O -4.082026333 1.739662028 -0.817835748
H 2.744323187 1.278576054 2.467756912
H 3.038150315 0.293307699 -1.903332909
H 2.242149162 -2.782810748 -0.917911089
H -3.695123278 -0.753467991 2.295433656

