16

C -2.700451116 1.255980409 -0.229770496
C -0.928749179 0.016610107 1.380584245
C -0.398804645 -2.544669672 0.257775670
O 2.165032500 -2.659929436 0.811442861
C 2.055250127 0.031419002 1.240056746
C 3.177829025 1.513012699 -0.914615010
H -4.295206243 2.275296546 0.535593208
H -4.311549861 -1.793109927 -0.035825617
H -2.237900717 1.609097430 -2.189821682
H -1.516801807 -0.096072788 3.347146463
H -0.833550106 -2.955869617 -1.724644904
H -3.657536625 -3.146330011 0.533537356
H 2.921686286 0.498976854 3.050963017
H 5.214517014 1.212791683 -1.008025778
H 2.807824731 3.522393107 -0.627324256
H 2.355513511 0.947425285 -2.717360953

