13

N -3.721718924 0.714748939 -1.009267688
C -1.094505977 0.704866862 -0.078969708
C -0.108602031 -1.765144796 0.093192581
O -1.515808738 -3.788051788 -0.176686445
N 2.410416933 -1.709785553 0.278218557
C 3.192087197 0.814350507 0.173921738
C 1.152156192 2.319237440 -0.132184169
H -4.494391861 2.443008908 -0.712231162
H -2.459301862 0.806053872 1.611009341
H -3.172897047 -3.051532070 -0.632690965
H 3.534078512 -3.228839649 0.435042846
H 5.157926577 1.278014559 0.429168236
H 1.172836561 4.353143659 -0.233356799

