14

C 3.372462104 0.672359944 -0.899114909
O 0.785626103 1.194808255 -1.193269678
C -0.741543385 0.415238120 0.838225401
C -1.062496114 -2.430876318 1.053594729
C -3.258482914 1.748416770 0.484349316
O -5.158429490 1.167388178 1.570211496
H 4.355074354 1.592087835 -2.455531008
H 3.772677902 -1.357442885 -0.970141022
H 4.092157382 1.430924583 0.892772875
H 0.041877314 1.160365162 2.623044174
H 0.693872133 -3.350194629 1.612659186
H -2.496517996 -2.846829113 2.471892143
H -1.679974594 -3.210774283 -0.752752427
H -3.189730217 3.358845474 -0.853142087

