14

C 3.722849679 0.747194497 -0.768817991
O 1.117753614 1.303873685 -1.076046017
C -0.357643274 0.769772321 0.944758504
C -2.146681105 -1.976691907 0.588598779
C -3.380764256 0.631189785 0.581197931
O -4.764597828 1.288576522 2.413460432
H 4.671857913 1.357441733 -2.486469472
H 4.012306891 -1.289202910 -0.513046375
H 4.509323438 1.758054147 0.853064173
H 0.036498681 1.556594035 2.802404297
H 0.157202764 -1.466408745 1.570672797
H -2.617196341 -3.148873091 2.206076482
H -1.555403319 -2.868132090 -1.158778812
H -3.708395977 1.254142500 -1.386868434

