10

C 4.252941158 -0.036144017 -0.721787791
C 1.513935546 0.077642006 -1.377590956
O 0.521962292 2.371569021 -0.769833265
H -1.239079001 2.398843797 -1.207841677
C 0.188919247 -1.787083874 -2.416206317
H -1.803193997 -1.583871892 -2.849345680
H 1.079628730 -3.568806160 -2.858207626
H 4.510784272 0.297711706 1.297849238
H 5.050562429 -1.866867166 -1.210252250
H 5.281522867 1.440852052 -1.730370963

