14

C -2.801872169 1.773515791 -0.739123798
C -2.288282932 -0.920430604 0.111286708
C 0.454393736 -1.588185324 0.333031934
O 0.777508312 -4.040661192 1.108965613
C 2.335930317 -0.059839576 -0.140324561
C 4.214017732 1.458245544 -0.618275964
H -2.010727386 3.140879852 0.586332222
H -4.831232614 2.109644495 -0.869196765
H -1.972919239 2.143170032 -2.590844828
H -3.146388782 -2.272423255 -1.197690768
H -3.159679320 -1.279362180 1.952444982
H 5.027787582 2.654044696 0.838326861
H 2.553911964 -4.392956616 1.224129548
H 5.038793064 1.592183814 -2.493437270

