15

C -1.490145217 2.698970535 1.164491851
C -1.222104158 0.032114610 1.982696833
C -1.897046017 -2.643129015 -1.017727103
O 0.297865132 -3.561165903 0.097610761
C 1.255027345 -1.317295805 1.228906492
C 2.944267153 0.026491693 -0.541959582
C 4.309847652 1.177849910 -1.933394634
H -3.414923588 3.395371140 1.391082051
H -0.318912448 3.735960089 2.531832744
H -0.747096515 3.186896781 -0.708463332
H -2.880290153 -1.479186752 0.731904629
H -1.583173770 -1.487963302 -2.703447693
H -3.283044478 -4.134266092 -1.333245093
H 2.349916804 -1.803717168 2.912490595
H 5.537631174 2.182534936 -3.170597099

