9

C -2.674742753 2.005539389 -0.977488466
C -2.541911693 0.230382616 1.139791354
C -2.591311137 -0.537416718 3.411039710
H -2.737009040 -0.382701949 5.427249059
N -1.606926645 -2.417589219 1.505561509
H -3.047975228 -3.626448249 1.064934881
H -3.198108677 3.889475241 -0.333136511
H -0.836846147 2.087533868 -1.914351524
H -4.054816564 1.367693175 -2.373777922

