14

O -4.267614257 -0.177231593 -0.551835177
C -1.731449770 -0.525700813 -0.807793970
C -0.795792036 -2.846711459 -0.959337533
N 2.487451487 1.710877247 -1.074336741
C -0.231566359 1.901532453 -0.903183509
C 3.720749608 0.830146633 0.762397703
O 2.868481841 -0.169195854 2.937833145
H -4.649692011 1.590487690 -0.422554043
H 1.122614575 -0.679232576 2.745922557
H -2.033199385 -4.470859499 -0.887222560
H 1.201207605 -3.136327086 -1.260001369
H -0.759923995 3.022681319 0.770414753
H -0.892263367 2.968475092 -2.547471834
H 5.774388611 0.846900718 0.713641011

