14

O -4.093609391 -0.328540433 0.129785049
C -1.471810849 -0.321886254 -0.087150635
C -0.521711809 -2.529250547 -1.310823247
N 2.534467003 0.860779623 -1.151959244
C 0.078947712 1.968399543 -1.183001851
C 3.456875848 0.597252288 1.211520445
O 2.329511522 1.181975541 3.172123318
H -4.568949796 0.549631511 1.644024973
H -0.551731507 -0.292218045 1.844981019
H -1.295584723 -4.352483728 -0.761618172
H 0.727455986 -2.448225251 -2.914980328
H -0.153782511 3.588220734 0.071832534
H -0.513621060 2.432781502 -3.099910533
H 5.323473993 -0.309218758 1.298872997

