12

O -3.357930828 1.451469175 -0.187064991
C -1.571098193 -0.411731903 -0.773385478
C 0.387642355 0.384974628 -2.440424499
C 0.241359676 -1.297088850 1.269735499
C 2.236002960 0.261343340 2.013980379
O 3.191959678 1.920322964 0.673508350
H -3.591311343 1.437286044 1.611455373
H -2.454017923 -2.159783351 -1.456985872
H 1.386517002 -1.016532097 -3.542064419
H 0.770569011 2.358960579 -2.777208598
H -0.062666210 -3.142421604 2.099655384
H 2.932988001 0.012659559 3.963637051

