13

C -3.628425621 0.434034451 0.083445619
N -0.935848124 0.602218167 0.423403173
C -0.033654284 -1.907216711 0.456001081
C 2.592025699 -1.733797188 -0.232229162
C 3.169699971 0.794117115 -0.393346436
C 0.929111685 2.202427610 0.000422694
H -4.698727872 1.871591217 1.094450778
H -2.338796219 -2.430351239 -0.240860580
H -4.074173841 0.377300375 -1.922787299
H -0.400846891 -2.828842983 2.265803733
H 3.893583865 -3.295513646 -0.389971253
H 4.993095348 1.605606690 -0.820704220
H 0.595415474 4.194932991 -0.282689082

