13

C 4.468802740 -0.125888018 -1.474231777
N 1.955138919 -1.028413901 -1.986532939
C -4.334622869 0.844634011 2.633102128
C 0.196102303 -0.353571027 -0.492143283
C -2.350210354 -1.159743782 -0.862984083
O -4.213278206 -0.523131371 0.626112167
H 5.168455054 0.929851702 -3.106176789
H 5.740125817 -1.733642343 -1.216058849
H 4.588813615 1.090604202 0.206617590
H -6.194449709 1.006236359 3.443300302
H -2.669390047 1.730772019 3.411302646
H 0.595637914 0.878782363 1.132622886
H -2.915505748 -2.360957982 -2.407526578

