11

N 2.341133923 -0.246986222 0.485385585
C 0.239844229 -1.213141017 -1.088146406
C -2.121648943 -1.389119117 0.525346168
O -1.794521911 1.198241245 1.376614213
C 0.355204412 1.429257240 -0.175627820
O 0.786976501 3.755637656 -1.116154622
H 2.285605606 -0.830674131 2.313798468
H 2.574370819 4.058609622 -1.038873611
H 0.650323527 -2.135613168 -2.860183600
H -3.859140394 -1.569831170 -0.568224186
H -2.106210447 -2.720062600 2.104240502

