13

N -3.892255028 1.469938867 -1.202644496
C -1.896870102 0.351483711 -0.567851910
O -1.819390669 -2.179886296 -0.368443701
C 0.703276979 -3.065610776 0.080667193
C 2.197026471 -0.802910143 1.062991108
C 0.674794686 1.393219086 0.115916745
N 1.442246103 3.634635884 -0.069627431
H -3.637027125 3.372813404 -1.201552631
H 0.065039365 4.790908655 -0.767749861
H 1.466536264 -3.778489717 -1.700424171
H 0.574381991 -4.622500326 1.417842160
H 2.212808084 -0.760126403 3.127091031
H 4.142422150 -0.735583377 0.402052159

