13

N -4.263555258 1.495374978 -0.926893562
C -2.112694400 0.554777783 -0.575068812
O -1.856408873 -1.946449712 -0.189843927
C 0.708745166 -2.730970439 -0.066978791
C 2.251646075 -0.732165921 1.316680302
C 1.570640237 1.734490245 0.180907110
N 2.046861123 3.831911727 -0.579023064
H -4.183707866 3.408459308 -1.092309397
H -0.150907954 2.724128553 -1.119860640
H 1.441288994 -3.017410060 -1.979893859
H 0.739064650 -4.528441948 0.930090317
H 1.761752265 -0.695542311 3.320612875
H 4.280265048 -1.030273411 1.109847661

