15

O -0.573704127 4.713649074 1.085038033
C -0.301615747 2.516244053 0.558805810
C -2.418837440 0.945056740 -0.539171178
C -2.082016926 -1.903009935 -0.152947667
C 0.369874923 -3.087269607 -0.712276308
C 2.461336681 -1.259614353 -0.609433614
C 2.180948057 1.158722007 0.956440129
H -2.450291156 1.348139159 -2.571251486
H -4.208422612 1.638168580 0.211203313
H -2.124715023 -2.382722430 1.892630350
H -3.660655316 -2.973954372 -0.937917525
H 2.262539118 0.671491747 2.968191161
H 2.486437138 -0.811722427 -2.663123753
H 4.281811052 -2.175033025 -0.288582023
H 3.717125491 2.492420370 0.627513814

