15

C -1.645012563 2.390536580 0.690725021
C -1.221028186 -0.385721505 1.215013490
C -2.159476309 -2.280238935 -0.769435931
O 0.337083809 -3.274251053 -1.150099735
C 1.412878530 -1.540483629 0.636477352
C 3.322935047 0.123090448 -0.455636363
C 4.891065954 1.505784402 -1.321109650
H -3.642659964 2.862692438 0.904822789
H -0.566943538 3.568728246 1.996133333
H -1.065655263 2.884466221 -1.226036338
H -1.830997462 -0.862750286 3.124017807
H -2.907043762 -1.425643781 -2.498421555
H -3.467723462 -3.733741456 -0.105254740
H 2.251794645 -2.554305140 2.231861644
H 6.290782504 2.721837449 -2.100978117

