14

O -0.538761787 2.399064290 3.107377975
C 0.165860015 2.024378408 0.933659670
C -1.807724048 0.028475111 -0.682009113
C -1.452611061 -2.730957816 0.114757644
C 1.131261490 -1.845286380 0.433138040
C 2.062407824 2.977151562 -0.547552680
H -3.548086522 0.834716085 0.049525564
H -1.600563332 0.270515391 -2.705136484
H -2.421572459 -3.202978577 1.857387808
H -1.798306768 -4.102325223 -1.369453796
H 2.457448721 -2.031280293 -1.106991435
H 1.918871975 -1.589352248 2.297634091
H 3.164196540 4.565035399 0.126801341
H 2.278551145 2.399626068 -2.491781473

