16

C -3.843024223 -1.548065021 -0.616622945
C -1.253468944 -0.383529082 -1.013249983
O -1.635111929 2.061741847 -1.980964407
C 0.245315099 -0.348426663 1.468829730
N 2.981786512 -0.219472017 1.178686983
C 4.229506645 1.759225097 0.192771850
O 3.248156052 3.626437081 -0.718111461
H -3.699238780 -3.532875436 -0.071099755
H -4.927558172 -1.423454250 -2.362512792
H -4.874605551 -0.522669220 0.848394755
H -0.184844733 -1.543148482 -2.371521173
H -0.066238888 2.994337109 -1.818323276
H -0.406371903 1.257624414 2.596722009
H -0.143458389 -2.068271247 2.535395048
H 4.029382116 -1.650490898 1.852132423
H 6.299775106 1.541036789 0.279472995

