16

C -1.782270231 1.386321963 -1.437138192
C -0.944771222 -1.310797698 -1.398238482
O 0.752453888 -1.845881228 -3.448258017
C 0.516493859 -1.873726154 1.106951694
N 2.222052492 0.228868662 1.468105001
C 1.300868302 2.478436964 1.951662635
O -0.752695074 2.888624469 3.312608260
H -3.791663074 1.567961210 -1.878476245
H -0.732074553 2.435797618 -2.869762243
H -1.939011202 2.399013532 1.822577466
H -2.554700206 -2.614942162 -1.449873642
H 0.961302376 -3.641986295 -3.589040969
H -0.782034924 -1.953406286 2.700665638
H 1.608386326 -3.620998430 1.039906762
H 3.808547115 0.208323257 0.410397114
H 2.618540919 4.041462417 1.695309608

