14

N -4.778413049 -0.101448530 -1.743839683
C -2.550066050 -0.201664183 -0.757045828
C -0.661489106 -1.801368370 0.088225549
C 1.497392279 -0.341466878 1.175511789
N 4.071121631 -0.682536573 0.208901437
C 0.684668071 2.328414782 0.693754176
N -1.489157061 2.360779913 -0.316793782
H -5.463841980 -1.861867291 -2.050754733
H 1.642378814 -0.487135415 3.254056797
H -0.842378396 -3.823839780 0.240418384
H 3.955123609 -1.202222482 -1.630156935
H 4.926172625 -2.115916005 1.134077994
H 1.786250183 4.010468717 1.075616747
H -2.511327194 3.887725903 -0.849449411

