12

C -3.160623030 -0.743761753 -0.172299786
C -0.395113462 -0.159794429 -0.013693541
C 1.606836354 -1.703000585 -1.055132720
N 3.625075741 -0.157315353 -0.661268745
N 3.164672468 2.147377564 0.303612319
C 0.746322124 2.193680673 0.736032716
H -3.995635765 0.291745670 -1.747098611
H -3.442965858 -2.752348211 -0.528429691
H -4.166921939 -0.212886133 1.546426250
H 0.622108290 -2.045412156 1.180904822
H 5.427287893 -0.599854630 -1.057572413
H -0.138594706 3.850088775 1.534436807

