24

C     3.75593  -0.00963  -0.60947
O     2.40425  -0.38284  -0.34593
C     1.64925   0.50800   0.34037
O     2.07086   1.60462   0.68667
N     0.39113   0.08414   0.63458
N    -0.02728  -0.97061  -0.02361
C    -1.22772  -1.49534   0.10742
C    -1.76124  -2.53553  -0.81869
C    -2.07027  -0.97032   1.14156
N    -2.75787  -0.74496   2.05587
C    -2.06384   0.64136  -1.19881
C    -1.29231   1.49836  -0.94371
C    -0.45755   2.70047  -0.77409
H     4.28543   0.20088   0.33683
H     4.20555  -0.87178  -1.10620
H     3.79628   0.87497  -1.25283
H     0.57867  -1.42286  -0.72963
H    -1.18617  -2.58248  -1.74970
H    -1.70298  -3.44761  -0.26294
H    -2.83619  -2.35616  -1.09604
H    -2.83692  -0.00584  -1.52960
H     0.49112   2.64349  -1.30596
H    -0.27488   2.97874   0.25569
H    -1.09373   3.46566  -1.25947
24

C     3.75539  -0.00973  -0.60836
O     2.40298  -0.38186  -0.34463
C     1.64775   0.51115   0.33777
O     2.07050   1.60659   0.68582
N     0.38530   0.09159   0.62386
N    -0.02574  -0.97577  -0.02020
C    -1.23778  -1.47573   0.09262
C    -1.76393  -2.53103  -0.82010
C    -2.07264  -0.97015   1.14122
N    -2.75739  -0.74662   2.05759
C    -2.05115   0.62168  -1.18478
C    -1.27667   1.48564  -0.93140
C    -0.46035   2.69803  -0.77554
H     4.28536   0.20089   0.33709
H     4.20521  -0.87196  -1.10579
H     3.79618   0.87485  -1.25262
H     0.57665  -1.42114  -0.73187
H    -1.18721  -2.58209  -1.75022
H    -1.70086  -3.44428  -0.26083
H    -2.83732  -2.35801  -1.09630
H    -2.83676   0.00329  -1.53106
H     0.49014   2.64482  -1.30683
H    -0.27616   2.98035   0.25470
H    -1.09731   3.46208  -1.26075
24

C     3.75485  -0.00982  -0.60724
O     2.40172  -0.38089  -0.34333
C     1.64624   0.51430   0.33517
O     2.07015   1.60855   0.68497
N     0.37947   0.09905   0.61314
N    -0.02419  -0.98093  -0.01680
C    -1.24783  -1.45611   0.07783
C    -1.76662  -2.52653  -0.82151
C    -2.07502  -0.96997   1.14088
N    -2.75691  -0.74828   2.05931
C    -2.03846   0.60201  -1.17074
C    -1.26102   1.47292  -0.91910
C    -0.46315   2.69559  -0.77698
H     4.28528   0.20091   0.33735
H     4.20486  -0.87213  -1.10538
H     3.79608   0.87473  -1.25241
H     0.57463  -1.41943  -0.73411
H    -1.18824  -2.58171  -1.75073
H    -1.69874  -3.44094  -0.25872
H    -2.83845  -2.35986  -1.09655
H    -2.83661   0.01242  -1.53252
H     0.48915   2.64614  -1.30770
H    -0.27743   2.98195   0.25371
H    -1.10089   3.45849  -1.26203
24

C     3.75431  -0.00992  -0.60612
O     2.40046  -0.37991  -0.34203
C     1.64473   0.51745   0.33257
O     2.06980   1.61052   0.68412
N     0.37364   0.10650   0.60243
N    -0.02265  -0.98610  -0.01339
C    -1.25789  -1.43649   0.06303
C    -1.76931  -2.52202  -0.82293
C    -2.07739  -0.96979   1.14054
N    -2.75643  -0.74994   2.06103
C    -2.02578   0.58233  -1.15670
C    -1.24537   1.46020  -0.90680
C    -0.46595   2.69315  -0.77843
H     4.28521   0.20092   0.33762
H     4.20452  -0.87231  -1.10498
H     3.79598   0.87462  -1.25221
H     0.57261  -1.41771  -0.73635
H    -1.18928  -2.58132  -1.75125
H    -1.69662  -3.43761  -0.25662
H    -2.83958  -2.36170  -1.09681
H    -2.83645   0.02155  -1.53398
H     0.48817   2.64746  -1.30856
H    -0.27871   2.98356   0.25272
H    -1.10447   3.45491  -1.26331
24

C     3.75377  -0.01002  -0.60500
O     2.39919  -0.37894  -0.34073
C     1.64322   0.52060   0.32998
O     2.06944   1.61248   0.68327
N     0.36781   0.11396   0.59171
N    -0.02111  -0.99126  -0.00999
C    -1.26795  -1.41687   0.04823
C    -1.77199  -2.51752  -0.82434
C    -2.07976  -0.96962   1.14020
N    -2.75596  -0.75160   2.06274
C    -2.01309   0.56266  -1.14266
C    -1.22972   1.44748  -0.89449
C    -0.46875   2.69071  -0.77987
H     4.28514   0.20094   0.33788
H     4.20417  -0.87248  -1.10457
H     3.79589   0.87450  -1.25200
H     0.57059  -1.41600  -0.73859
H    -1.19032  -2.58093  -1.75177
H    -1.69450  -3.43428  -0.25451
H    -2.84071  -2.36355  -1.09706
H    -2.83630   0.03068  -1.53545
H     0.48719   2.64879  -1.30943
H    -0.27999   2.98516   0.25174
H    -1.10805   3.45132  -1.26459
24

C     3.75323  -0.01011  -0.60389
O     2.39793  -0.37796  -0.33943
C     1.64172   0.52375   0.32738
O     2.06909   1.61445   0.68242
N     0.36198   0.12141   0.58099
N    -0.01956  -0.99642  -0.00659
C    -1.27801  -1.39726   0.03344
C    -1.77468  -2.51302  -0.82575
C    -2.08214  -0.96944   1.13986
N    -2.75548  -0.75326   2.06446
C    -2.00040   0.54298  -1.12863
C    -1.21407   1.43476  -0.88219
C    -0.47154   2.68827  -0.78132
H     4.28506   0.20095   0.33814
H     4.20383  -0.87265  -1.10417
H     3.79579   0.87438  -1.25179
H     0.56858  -1.41428  -0.74084
H    -1.19136  -2.58055  -1.75228
H    -1.69238  -3.43095  -0.25240
H    -2.84184  -2.36540  -1.09731
H    -2.83615   0.03981  -1.53691
H     0.48621   2.65011  -1.31030
H    -0.28126   2.98677   0.25075
H    -1.11163   3.44773  -1.26587
24

C     3.75269  -0.01021  -0.60277
O     2.39667  -0.37699  -0.33812
C     1.64021   0.52690   0.32478
O     2.06873   1.61641   0.68157
N     0.35615   0.12886   0.57027
N    -0.01802  -1.00158  -0.00318
C    -1.28806  -1.37764   0.01864
C    -1.77737  -2.50851  -0.82716
C    -2.08451  -0.96927   1.13952
N    -2.75500  -0.75492   2.06618
C    -1.98771   0.52331  -1.11459
C    -1.19843   1.42203  -0.86989
C    -0.47434   2.68583  -0.78276
H     4.28499   0.20096   0.33841
H     4.20349  -0.87283  -1.10376
H     3.79569   0.87426  -1.25159
H     0.56656  -1.41257  -0.74308
H    -1.19239  -2.58016  -1.75280
H    -1.69026  -3.42762  -0.25030
H    -2.84297  -2.36725  -1.09757
H    -2.83599   0.04894  -1.53837
H     0.48522   2.65143  -1.31116
H    -0.28254   2.98838   0.24976
H    -1.11521   3.44415  -1.26715
24

C     3.75215  -0.01031  -0.60165
O     2.39540  -0.37601  -0.33682
C     1.63870   0.53005   0.32218
O     2.06838   1.61838   0.68072
N     0.35032   0.13632   0.55955
N    -0.01647  -1.00674   0.00022
C    -1.29812  -1.35802   0.00385
C    -1.78006  -2.50401  -0.82858
C    -2.08689  -0.96909   1.13918
N    -2.75452  -0.75659   2.06790
C    -1.97503   0.50363  -1.10055
C    -1.18278   1.40931  -0.85759
C    -0.47714   2.68339  -0.78421
H     4.28491   0.20098   0.33867
H     4.20314  -0.87300  -1.10335
H     3.79560   0.87414  -1.25138
H     0.56454  -1.41085  -0.74532
H    -1.19343  -2.57978  -1.75332
H    -1.68814  -3.42429  -0.24819
H    -2.84410  -2.36909  -1.09782
H    -2.83584   0.05807  -1.53983
H     0.48424   2.65276  -1.31203
H    -0.28382   2.98998   0.24877
H    -1.11879   3.44056  -1.26843
24

C     3.75161  -0.01040  -0.60053
O     2.39414  -0.37504  -0.33552
C     1.63719   0.53319   0.31958
O     2.06803   1.62034   0.67987
N     0.34449   0.14377   0.54883
N    -0.01493  -1.01190   0.00363
C    -1.30818  -1.33840  -0.01095
C    -1.78275  -2.49950  -0.82999
C    -2.08926  -0.96891   1.13884
N    -2.75404  -0.75825   2.06962
C    -1.96234   0.48395  -1.08651
C    -1.16713   1.39659  -0.84528
C    -0.47994   2.68095  -0.78565
H     4.28484   0.20099   0.33893
H     4.20280  -0.87317  -1.10295
H     3.79550   0.87402  -1.25117
H     0.56252  -1.40914  -0.74756
H    -1.19447  -2.57939  -1.75383
H    -1.68602  -3.42096  -0.24608
H    -2.84523  -2.37094  -1.09807
H    -2.83568   0.06720  -1.54130
H     0.48326   2.65408  -1.31290
H    -0.28510   2.99159   0.24778
H    -1.12237   3.43698  -1.26971
24

C     3.75107  -0.01050  -0.59942
O     2.39288  -0.37406  -0.33422
C     1.63569   0.53634   0.31698
O     2.06767   1.62231   0.67902
N     0.33866   0.15123   0.53811
N    -0.01338  -1.01706   0.00703
C    -1.31823  -1.31879  -0.02574
C    -1.78543  -2.49500  -0.83140
C    -2.09163  -0.96874   1.13850
N    -2.75357  -0.75991   2.07134
C    -1.94965   0.46428  -1.07248
C    -1.15148   1.38387  -0.83298
C    -0.48274   2.67851  -0.78710
H     4.28477   0.20101   0.33920
H     4.20246  -0.87335  -1.10254
H     3.79540   0.87391  -1.25097
H     0.56050  -1.40742  -0.74981
H    -1.19550  -2.57900  -1.75435
H    -1.68389  -3.41763  -0.24398
H    -2.84636  -2.37279  -1.09833
H    -2.83553   0.07633  -1.54276
H     0.48228   2.65540  -1.31376
H    -0.28637   2.99319   0.24679
H    -1.12595   3.43339  -1.27099
24

C     3.75053  -0.01059  -0.59830
O     2.39161  -0.37309  -0.33292
C     1.63418   0.53949   0.31438
O     2.06732   1.62427   0.67817
N     0.33283   0.15868   0.52739
N    -0.01184  -1.02222   0.01043
C    -1.32829  -1.29917  -0.04054
C    -1.78812  -2.49050  -0.83281
C    -2.09401  -0.96856   1.13816
N    -2.75309  -0.76157   2.07306
C    -1.93696   0.44460  -1.05844
C    -1.13584   1.37115  -0.82068
C    -0.48553   2.67607  -0.78854
H     4.28469   0.20102   0.33946
H     4.20211  -0.87352  -1.10214
H     3.79530   0.87379  -1.25076
H     0.55849  -1.40571  -0.75205
H    -1.19654  -2.57862  -1.75486
H    -1.68177  -3.41430  -0.24187
H    -2.84749  -2.37464  -1.09858
H    -2.83537   0.08546  -1.54422
H     0.48130   2.65673  -1.31463
H    -0.28765   2.99480   0.24580
H    -1.12953   3.42980  -1.27227
24

C     3.74999  -0.01069  -0.59718
O     2.39035  -0.37211  -0.33162
C     1.63267   0.54264   0.31178
O     2.06697   1.62624   0.67732
N     0.32700   0.16613   0.51667
N    -0.01029  -1.02738   0.01384
C    -1.33835  -1.27955  -0.05533
C    -1.79081  -2.48599  -0.83423
C    -2.09638  -0.96839   1.13782
N    -2.75261  -0.76323   2.07478
C    -1.92427   0.42493  -1.04440
C    -1.12019   1.35842  -0.80837
C    -0.48833   2.67363  -0.78999
H     4.28462   0.20103   0.33972
H     4.20177  -0.87369  -1.10173
H     3.79521   0.87367  -1.25055
H     0.55647  -1.40399  -0.75429
H    -1.19758  -2.57823  -1.75538
H    -1.67965  -3.41097  -0.23976
H    -2.84862  -2.37649  -1.09883
H    -2.83522   0.09459  -1.54569
H     0.48031   2.65805  -1.31550
H    -0.28893   2.99640   0.24481
H    -1.13311   3.42622  -1.27355
24

C     3.74945  -0.01079  -0.59606
O     2.38909  -0.37114  -0.33032
C     1.63116   0.54579   0.30918
O     2.06661   1.62820   0.67647
N     0.32117   0.17359   0.50595
N    -0.00875  -1.03254   0.01724
C    -1.34840  -1.25993  -0.07013
C    -1.79350  -2.48149  -0.83564
C    -2.09875  -0.96821   1.13748
N    -2.75213  -0.76489   2.07650
C    -1.91159   0.40525  -1.03037
C    -1.10454   1.34570  -0.79607
C    -0.49113   2.67119  -0.79144
H     4.28455   0.20105   0.33998
H     4.20142  -0.87387  -1.10132
H     3.79511   0.87355  -1.25035
H     0.55445  -1.40228  -0.75653
H    -1.19862  -2.57785  -1.75590
H    -1.67753  -3.40764  -0.23766
H    -2.84975  -2.37833  -1.09909
H    -2.83507   0.10373  -1.54715
H     0.47933   2.65937  -1.31636
H    -0.29020   2.99801   0.24382
H    -1.13669   3.42263  -1.27483
24

C     3.74891  -0.01088  -0.59495
O     2.38782  -0.37016  -0.32902
C     1.62966   0.54894   0.30658
O     2.06626   1.63017   0.67562
N     0.31534   0.18104   0.49523
N    -0.00720  -1.03770   0.02065
C    -1.35846  -1.24032  -0.08492
C    -1.79618  -2.47698  -0.83705
C    -2.10113  -0.96803   1.13714
N    -2.75165  -0.76655   2.07822
C    -1.89890   0.38558  -1.01633
C    -1.08889   1.33298  -0.78377
C    -0.49393   2.66874  -0.79288
H     4.28447   0.20106   0.34025
H     4.20108  -0.87404  -1.10092
H     3.79501   0.87343  -1.25014
H     0.55243  -1.40056  -0.75877
H    -1.19965  -2.57746  -1.75641
H    -1.67541  -3.40431  -0.23555
H    -2.85088  -2.38018  -1.09934
H    -2.83491   0.11286  -1.54861
H     0.47835   2.66070  -1.31723
H    -0.29148   2.99961   0.24283
H    -1.14026   3.41905  -1.27611
24

C     3.74837  -0.01098  -0.59383
O     2.38656  -0.36919  -0.32772
C     1.62815   0.55209   0.30398
O     2.06591   1.63213   0.67477
N     0.30951   0.18850   0.48451
N    -0.00566  -1.04286   0.02405
C    -1.36852  -1.22070  -0.09972
C    -1.79887  -2.47248  -0.83847
C    -2.10350  -0.96786   1.13680
N    -2.75118  -0.76821   2.07993
C    -1.88621   0.36590  -1.00229
C    -1.07325   1.32026  -0.77146
C    -0.49673   2.66630  -0.79433
H     4.28440   0.20108   0.34051
H     4.20074  -0.87421  -1.10051
H     3.79492   0.87332  -1.24993
H     0.55041  -1.39885  -0.76102
H    -1.20069  -2.57707  -1.75693
H    -1.67329  -3.40098  -0.23344
H    -2.85201  -2.38203  -1.09960
H    -2.83476   0.12199  -1.55007
H     0.47737   2.66202  -1.31810
H    -0.29276   3.00122   0.24184
H    -1.14384   3.41546  -1.27739
24

C     3.74783  -0.01108  -0.59271
O     2.38530  -0.36821  -0.32642
C     1.62664   0.55524   0.30138
O     2.06555   1.63409   0.67391
N     0.30368   0.19595   0.47379
N    -0.00411  -1.04802   0.02745
C    -1.37858  -1.20108  -0.11452
C    -1.80156  -2.46798  -0.83988
C    -2.10588  -0.96768   1.13646
N    -2.75070  -0.76988   2.08165
C    -1.87352   0.34622  -0.98825
C    -1.05760   1.30754  -0.75916
C    -0.49952   2.66386  -0.79577
H     4.28433   0.20109   0.34077
H     4.20039  -0.87439  -1.10011
H     3.79482   0.87320  -1.24973
H     0.54840  -1.39713  -0.76326
H    -1.20173  -2.57669  -1.75745
H    -1.67117  -3.39765  -0.23134
H    -2.85314  -2.38388  -1.09985
H    -2.83460   0.13112  -1.55154
H     0.47638   2.66334  -1.31896
H    -0.29403   3.00283   0.24085
H    -1.14742   3.41187  -1.27867
24

C     3.74729  -0.01117  -0.59159
O     2.38403  -0.36724  -0.32512
C     1.62513   0.55839   0.29878
O     2.06520   1.63606   0.67306
N     0.29785   0.20341   0.46308
N    -0.00257  -1.05318   0.03086
C    -1.38863  -1.18146  -0.12931
C    -1.80425  -2.46347  -0.84129
C    -2.10825  -0.96751   1.13612
N    -2.75022  -0.77154   2.08337
C    -1.86084   0.32655  -0.97422
C    -1.04195   1.29481  -0.74686
C    -0.50232   2.66142  -0.79722
H     4.28425   0.20110   0.34104
H     4.20005  -0.87456  -1.09970
H     3.79472   0.87308  -1.24952
H     0.54638  -1.39542  -0.76550
H    -1.20276  -2.57630  -1.75796
H    -1.66905  -3.39432  -0.22923
H    -2.85427  -2.38573  -1.10010
H    -2.83445   0.14025  -1.55300
H     0.47540   2.66467  -1.31983
H    -0.29531   3.00443   0.23986
H    -1.15100   3.40829  -1.27995
24

C     3.74675  -0.01127  -0.59048
O     2.38277  -0.36626  -0.32382
C     1.62363   0.56154   0.29618
O     2.06484   1.63802   0.67221
N     0.29202   0.21086   0.45236
N    -0.00103  -1.05835   0.03426
C    -1.39869  -1.16185  -0.14411
C    -1.80694  -2.45897  -0.84270
C    -2.11062  -0.96733   1.13578
N    -2.74974  -0.77320   2.08509
C    -1.84815   0.30687  -0.96018
C    -1.02630   1.28209  -0.73455
C    -0.50512   2.65898  -0.79866
H     4.28418   0.20112   0.34130
H     4.19971  -0.87473  -1.09929
H     3.79462   0.87296  -1.24931
H     0.54436  -1.39370  -0.76774
H    -1.20380  -2.57591  -1.75848
H    -1.66692  -3.39099  -0.22712
H    -2.85540  -2.38757  -1.10036
H    -2.83429   0.14938  -1.55446
H     0.47442   2.66599  -1.32070
H    -0.29659   3.00604   0.23887
H    -1.15458   3.40470  -1.28123
24

C     3.74621  -0.01136  -0.58936
O     2.38151  -0.36529  -0.32252
C     1.62212   0.56468   0.29358
O     2.06449   1.63999   0.67136
N     0.28619   0.21831   0.44164
N     0.00052  -1.06351   0.03767
C    -1.40875  -1.14223  -0.15890
C    -1.80962  -2.45446  -0.84412
C    -2.11300  -0.96715   1.13544
N    -2.74926  -0.77486   2.08681
C    -1.83546   0.28720  -0.94614
C    -1.01066   1.26937  -0.72225
C    -0.50792   2.65654  -0.80011
H     4.28411   0.20113   0.34156
H     4.19936  -0.87491  -1.09889
H     3.79453   0.87284  -1.24911
H     0.54234  -1.39199  -0.76998
H    -1.20484  -2.57553  -1.75899
H    -1.66480  -3.38766  -0.22501
H    -2.85653  -2.38942  -1.10061
H    -2.83414   0.15851  -1.55592
H     0.47344   2.66731  -1.32156
H    -0.29786   3.00764   0.23789
H    -1.15816   3.40112  -1.28251
24

C     3.74567  -0.01146  -0.58824
O     2.38024  -0.36431  -0.32122
C     1.62061   0.56783   0.29098
O     2.06414   1.64195   0.67051
N     0.28036   0.22577   0.43092
N     0.00206  -1.06867   0.04107
C    -1.41880  -1.12261  -0.17370
C    -1.81231  -2.44996  -0.84553
C    -2.11537  -0.96698   1.13510
N    -2.74879  -0.77652   2.08853
C    -1.82277   0.26752  -0.93211
C    -0.99501   1.25665  -0.70995
C    -0.51072   2.65410  -0.80155
H     4.28403   0.20115   0.34183
H     4.19902  -0.87508  -1.09848
H     3.79443   0.87273  -1.24890
H     0.54032  -1.39027  -0.77223
H    -1.20587  -2.57514  -1.75951
H    -1.66268  -3.38433  -0.22291
H    -2.85766  -2.39127  -1.10086
H    -2.83399   0.16764  -1.55739
H     0.47245   2.66864  -1.32243
H    -0.29914   3.00925   0.23690
H    -1.16174   3.39753  -1.28379
24

C     3.74513  -0.01156  -0.58712
O     2.37898  -0.36334  -0.31992
C     1.61910   0.57098   0.28838
O     2.06378   1.64392   0.66966
N     0.27453   0.23322   0.42020
N     0.00361  -1.07383   0.04447
C    -1.42886  -1.10299  -0.18849
C    -1.81500  -2.44546  -0.84694
C    -2.11775  -0.96680   1.13476
N    -2.74831  -0.77818   2.09025
C    -1.81008   0.24784  -0.91807
C    -0.97936   1.24393  -0.69764
C    -0.51351   2.65166  -0.80300
H     4.28396   0.20116   0.34209
H     4.19867  -0.87525  -1.09808
H     3.79433   0.87261  -1.24869
H     0.53830  -1.38856  -0.77447
H    -1.20691  -2.57476  -1.76003
H    -1.66056  -3.38100  -0.22080
H    -2.85879  -2.39312  -1.10112
H    -2.83383   0.17677  -1.55885
H     0.47147   2.66996  -1.32330
H    -0.30042   3.01085   0.23591
H    -1.16532   3.39394  -1.28507
24

C     3.74567  -0.01146  -0.58824
O     2.38024  -0.36431  -0.32122
C     1.62061   0.56783   0.29098
O     2.06414   1.64195   0.67051
N     0.28036   0.22577   0.43092
N     0.00206  -1.06867   0.04107
C    -1.41880  -1.12261  -0.17370
C    -1.81231  -2.44996  -0.84553
C    -2.11537  -0.96698   1.13510
N    -2.74879  -0.77652   2.08853
C    -1.82277   0.26752  -0.93211
C    -0.99501   1.25665  -0.70995
C    -0.51072   2.65410  -0.80155
H     4.28403   0.20115   0.34183
H     4.19902  -0.87508  -1.09848
H     3.79443   0.87273  -1.24890
H     0.54032  -1.39027  -0.77223
H    -1.20587  -2.57514  -1.75951
H    -1.66268  -3.38433  -0.22291
H    -2.85766  -2.39127  -1.10086
H    -2.83399   0.16764  -1.55739
H     0.47245   2.66864  -1.32243
H    -0.29914   3.00925   0.23690
H    -1.16174   3.39753  -1.28379
24

C     3.74621  -0.01136  -0.58936
O     2.38151  -0.36529  -0.32252
C     1.62212   0.56468   0.29358
O     2.06449   1.63999   0.67136
N     0.28619   0.21831   0.44164
N     0.00052  -1.06351   0.03767
C    -1.40875  -1.14223  -0.15890
C    -1.80962  -2.45446  -0.84412
C    -2.11300  -0.96715   1.13544
N    -2.74926  -0.77486   2.08681
C    -1.83546   0.28720  -0.94614
C    -1.01066   1.26937  -0.72225
C    -0.50792   2.65654  -0.80011
H     4.28411   0.20113   0.34156
H     4.19936  -0.87491  -1.09889
H     3.79453   0.87284  -1.24911
H     0.54234  -1.39199  -0.76998
H    -1.20484  -2.57553  -1.75899
H    -1.66480  -3.38766  -0.22501
H    -2.85653  -2.38942  -1.10061
H    -2.83414   0.15851  -1.55592
H     0.47344   2.66731  -1.32156
H    -0.29786   3.00764   0.23789
H    -1.15816   3.40112  -1.28251
24

C     3.74675  -0.01127  -0.59048
O     2.38277  -0.36626  -0.32382
C     1.62363   0.56154   0.29618
O     2.06484   1.63802   0.67221
N     0.29202   0.21086   0.45236
N    -0.00103  -1.05835   0.03426
C    -1.39869  -1.16185  -0.14411
C    -1.80694  -2.45897  -0.84270
C    -2.11062  -0.96733   1.13578
N    -2.74974  -0.77320   2.08509
C    -1.84815   0.30687  -0.96018
C    -1.02630   1.28209  -0.73455
C    -0.50512   2.65898  -0.79866
H     4.28418   0.20112   0.34130
H     4.19971  -0.87473  -1.09929
H     3.79462   0.87296  -1.24931
H     0.54436  -1.39370  -0.76774
H    -1.20380  -2.57591  -1.75848
H    -1.66692  -3.39099  -0.22712
H    -2.85540  -2.38757  -1.10036
H    -2.83429   0.14938  -1.55446
H     0.47442   2.66599  -1.32070
H    -0.29659   3.00604   0.23887
H    -1.15458   3.40470  -1.28123
24

C     3.74729  -0.01117  -0.59159
O     2.38403  -0.36724  -0.32512
C     1.62513   0.55839   0.29878
O     2.06520   1.63606   0.67306
N     0.29785   0.20341   0.46308
N    -0.00257  -1.05318   0.03086
C    -1.38863  -1.18146  -0.12931
C    -1.80425  -2.46347  -0.84129
C    -2.10825  -0.96751   1.13612
N    -2.75022  -0.77154   2.08337
C    -1.86084   0.32655  -0.97422
C    -1.04195   1.29481  -0.74686
C    -0.50232   2.66142  -0.79722
H     4.28425   0.20110   0.34104
H     4.20005  -0.87456  -1.09970
H     3.79472   0.87308  -1.24952
H     0.54638  -1.39542  -0.76550
H    -1.20276  -2.57630  -1.75796
H    -1.66905  -3.39432  -0.22923
H    -2.85427  -2.38573  -1.10010
H    -2.83445   0.14025  -1.55300
H     0.47540   2.66467  -1.31983
H    -0.29531   3.00443   0.23986
H    -1.15100   3.40829  -1.27995
24

C     3.74783  -0.01108  -0.59271
O     2.38530  -0.36821  -0.32642
C     1.62664   0.55524   0.30138
O     2.06555   1.63409   0.67391
N     0.30368   0.19595   0.47379
N    -0.00411  -1.04802   0.02745
C    -1.37858  -1.20108  -0.11452
C    -1.80156  -2.46798  -0.83988
C    -2.10588  -0.96768   1.13646
N    -2.75070  -0.76988   2.08165
C    -1.87352   0.34622  -0.98825
C    -1.05760   1.30754  -0.75916
C    -0.49952   2.66386  -0.79577
H     4.28433   0.20109   0.34077
H     4.20039  -0.87439  -1.10011
H     3.79482   0.87320  -1.24973
H     0.54840  -1.39713  -0.76326
H    -1.20173  -2.57669  -1.75745
H    -1.67117  -3.39765  -0.23134
H    -2.85314  -2.38388  -1.09985
H    -2.83460   0.13112  -1.55154
H     0.47638   2.66334  -1.31896
H    -0.29403   3.00283   0.24085
H    -1.14742   3.41187  -1.27867
24

C     3.74837  -0.01098  -0.59383
O     2.38656  -0.36919  -0.32772
C     1.62815   0.55209   0.30398
O     2.06591   1.63213   0.67477
N     0.30951   0.18850   0.48451
N    -0.00566  -1.04286   0.02405
C    -1.36852  -1.22070  -0.09972
C    -1.79887  -2.47248  -0.83847
C    -2.10350  -0.96786   1.13680
N    -2.75118  -0.76821   2.07993
C    -1.88621   0.36590  -1.00229
C    -1.07325   1.32026  -0.77146
C    -0.49673   2.66630  -0.79433
H     4.28440   0.20108   0.34051
H     4.20074  -0.87421  -1.10051
H     3.79492   0.87332  -1.24993
H     0.55041  -1.39885  -0.76102
H    -1.20069  -2.57707  -1.75693
H    -1.67329  -3.40098  -0.23344
H    -2.85201  -2.38203  -1.09960
H    -2.83476   0.12199  -1.55007
H     0.47737   2.66202  -1.31810
H    -0.29276   3.00122   0.24184
H    -1.14384   3.41546  -1.27739
24

C     3.74891  -0.01088  -0.59495
O     2.38782  -0.37016  -0.32902
C     1.62966   0.54894   0.30658
O     2.06626   1.63017   0.67562
N     0.31534   0.18104   0.49523
N    -0.00720  -1.03770   0.02065
C    -1.35846  -1.24032  -0.08492
C    -1.79618  -2.47698  -0.83705
C    -2.10113  -0.96803   1.13714
N    -2.75165  -0.76655   2.07822
C    -1.89890   0.38558  -1.01633
C    -1.08889   1.33298  -0.78377
C    -0.49393   2.66874  -0.79288
H     4.28447   0.20106   0.34025
H     4.20108  -0.87404  -1.10092
H     3.79501   0.87343  -1.25014
H     0.55243  -1.40056  -0.75877
H    -1.19965  -2.57746  -1.75641
H    -1.67541  -3.40431  -0.23555
H    -2.85088  -2.38018  -1.09934
H    -2.83491   0.11286  -1.54861
H     0.47835   2.66070  -1.31723
H    -0.29148   2.99961   0.24283
H    -1.14026   3.41905  -1.27611
24

C     3.74945  -0.01079  -0.59606
O     2.38909  -0.37114  -0.33032
C     1.63116   0.54579   0.30918
O     2.06661   1.62820   0.67647
N     0.32117   0.17359   0.50595
N    -0.00875  -1.03254   0.01724
C    -1.34840  -1.25993  -0.07013
C    -1.79350  -2.48149  -0.83564
C    -2.09875  -0.96821   1.13748
N    -2.75213  -0.76489   2.07650
C    -1.91159   0.40525  -1.03037
C    -1.10454   1.34570  -0.79607
C    -0.49113   2.67119  -0.79144
H     4.28455   0.20105   0.33998
H     4.20142  -0.87387  -1.10132
H     3.79511   0.87355  -1.25035
H     0.55445  -1.40228  -0.75653
H    -1.19862  -2.57785  -1.75590
H    -1.67753  -3.40764  -0.23766
H    -2.84975  -2.37833  -1.09909
H    -2.83507   0.10373  -1.54715
H     0.47933   2.65937  -1.31636
H    -0.29020   2.99801   0.24382
H    -1.13669   3.42263  -1.27483
24

C     3.74999  -0.01069  -0.59718
O     2.39035  -0.37211  -0.33162
C     1.63267   0.54264   0.31178
O     2.06697   1.62624   0.67732
N     0.32700   0.16613   0.51667
N    -0.01029  -1.02738   0.01384
C    -1.33835  -1.27955  -0.05533
C    -1.79081  -2.48599  -0.83423
C    -2.09638  -0.96839   1.13782
N    -2.75261  -0.76323   2.07478
C    -1.92427   0.42493  -1.04440
C    -1.12019   1.35842  -0.80837
C    -0.48833   2.67363  -0.78999
H     4.28462   0.20103   0.33972
H     4.20177  -0.87369  -1.10173
H     3.79521   0.87367  -1.25055
H     0.55647  -1.40399  -0.75429
H    -1.19758  -2.57823  -1.75538
H    -1.67965  -3.41097  -0.23976
H    -2.84862  -2.37649  -1.09883
H    -2.83522   0.09459  -1.54569
H     0.48031   2.65805  -1.31550
H    -0.28893   2.99640   0.24481
H    -1.13311   3.42622  -1.27355
24

C     3.75053  -0.01059  -0.59830
O     2.39161  -0.37309  -0.33292
C     1.63418   0.53949   0.31438
O     2.06732   1.62427   0.67817
N     0.33283   0.15868   0.52739
N    -0.01184  -1.02222   0.01043
C    -1.32829  -1.29917  -0.04054
C    -1.78812  -2.49050  -0.83281
C    -2.09401  -0.96856   1.13816
N    -2.75309  -0.76157   2.07306
C    -1.93696   0.44460  -1.05844
C    -1.13584   1.37115  -0.82068
C    -0.48553   2.67607  -0.78854
H     4.28469   0.20102   0.33946
H     4.20211  -0.87352  -1.10214
H     3.79530   0.87379  -1.25076
H     0.55849  -1.40571  -0.75205
H    -1.19654  -2.57862  -1.75486
H    -1.68177  -3.41430  -0.24187
H    -2.84749  -2.37464  -1.09858
H    -2.83537   0.08546  -1.54422
H     0.48130   2.65673  -1.31463
H    -0.28765   2.99480   0.24580
H    -1.12953   3.42980  -1.27227
24

C     3.75107  -0.01050  -0.59942
O     2.39288  -0.37406  -0.33422
C     1.63569   0.53634   0.31698
O     2.06767   1.62231   0.67902
N     0.33866   0.15123   0.53811
N    -0.01338  -1.01706   0.00703
C    -1.31823  -1.31879  -0.02574
C    -1.78543  -2.49500  -0.83140
C    -2.09163  -0.96874   1.13850
N    -2.75357  -0.75991   2.07134
C    -1.94965   0.46428  -1.07248
C    -1.15148   1.38387  -0.83298
C    -0.48274   2.67851  -0.78710
H     4.28477   0.20101   0.33920
H     4.20246  -0.87335  -1.10254
H     3.79540   0.87391  -1.25097
H     0.56050  -1.40742  -0.74981
H    -1.19550  -2.57900  -1.75435
H    -1.68389  -3.41763  -0.24398
H    -2.84636  -2.37279  -1.09833
H    -2.83553   0.07633  -1.54276
H     0.48228   2.65540  -1.31376
H    -0.28637   2.99319   0.24679
H    -1.12595   3.43339  -1.27099
24

C     3.75161  -0.01040  -0.60053
O     2.39414  -0.37504  -0.33552
C     1.63719   0.53319   0.31958
O     2.06803   1.62034   0.67987
N     0.34449   0.14377   0.54883
N    -0.01493  -1.01190   0.00363
C    -1.30818  -1.33840  -0.01095
C    -1.78275  -2.49950  -0.82999
C    -2.08926  -0.96891   1.13884
N    -2.75404  -0.75825   2.06962
C    -1.96234   0.48395  -1.08651
C    -1.16713   1.39659  -0.84528
C    -0.47994   2.68095  -0.78565
H     4.28484   0.20099   0.33893
H     4.20280  -0.87317  -1.10295
H     3.79550   0.87402  -1.25117
H     0.56252  -1.40914  -0.74756
H    -1.19447  -2.57939  -1.75383
H    -1.68602  -3.42096  -0.24608
H    -2.84523  -2.37094  -1.09807
H    -2.83568   0.06720  -1.54130
H     0.48326   2.65408  -1.31290
H    -0.28510   2.99159   0.24778
H    -1.12237   3.43698  -1.26971
24

C     3.75215  -0.01031  -0.60165
O     2.39540  -0.37601  -0.33682
C     1.63870   0.53005   0.32218
O     2.06838   1.61838   0.68072
N     0.35032   0.13632   0.55955
N    -0.01647  -1.00674   0.00022
C    -1.29812  -1.35802   0.00385
C    -1.78006  -2.50401  -0.82858
C    -2.08689  -0.96909   1.13918
N    -2.75452  -0.75659   2.06790
C    -1.97503   0.50363  -1.10055
C    -1.18278   1.40931  -0.85759
C    -0.47714   2.68339  -0.78421
H     4.28491   0.20098   0.33867
H     4.20314  -0.87300  -1.10335
H     3.79560   0.87414  -1.25138
H     0.56454  -1.41085  -0.74532
H    -1.19343  -2.57978  -1.75332
H    -1.68814  -3.42429  -0.24819
H    -2.84410  -2.36909  -1.09782
H    -2.83584   0.05807  -1.53983
H     0.48424   2.65276  -1.31203
H    -0.28382   2.98998   0.24877
H    -1.11879   3.44056  -1.26843
24

C     3.75269  -0.01021  -0.60277
O     2.39667  -0.37699  -0.33812
C     1.64021   0.52690   0.32478
O     2.06873   1.61641   0.68157
N     0.35615   0.12886   0.57027
N    -0.01802  -1.00158  -0.00318
C    -1.28806  -1.37764   0.01864
C    -1.77737  -2.50851  -0.82716
C    -2.08451  -0.96927   1.13952
N    -2.75500  -0.75492   2.06618
C    -1.98771   0.52331  -1.11459
C    -1.19843   1.42203  -0.86989
C    -0.47434   2.68583  -0.78276
H     4.28499   0.20096   0.33841
H     4.20349  -0.87283  -1.10376
H     3.79569   0.87426  -1.25159
H     0.56656  -1.41257  -0.74308
H    -1.19239  -2.58016  -1.75280
H    -1.69026  -3.42762  -0.25030
H    -2.84297  -2.36725  -1.09757
H    -2.83599   0.04894  -1.53837
H     0.48522   2.65143  -1.31116
H    -0.28254   2.98838   0.24976
H    -1.11521   3.44415  -1.26715
24

C     3.75323  -0.01011  -0.60389
O     2.39793  -0.37796  -0.33943
C     1.64172   0.52375   0.32738
O     2.06909   1.61445   0.68242
N     0.36198   0.12141   0.58099
N    -0.01956  -0.99642  -0.00659
C    -1.27801  -1.39726   0.03344
C    -1.77468  -2.51302  -0.82575
C    -2.08214  -0.96944   1.13986
N    -2.75548  -0.75326   2.06446
C    -2.00040   0.54298  -1.12863
C    -1.21407   1.43476  -0.88219
C    -0.47154   2.68827  -0.78132
H     4.28506   0.20095   0.33814
H     4.20383  -0.87265  -1.10417
H     3.79579   0.87438  -1.25179
H     0.56858  -1.41428  -0.74084
H    -1.19136  -2.58055  -1.75228
H    -1.69238  -3.43095  -0.25240
H    -2.84184  -2.36540  -1.09731
H    -2.83615   0.03981  -1.53691
H     0.48621   2.65011  -1.31030
H    -0.28126   2.98677   0.25075
H    -1.11163   3.44773  -1.26587
24

C     3.75377  -0.01002  -0.60500
O     2.39919  -0.37894  -0.34073
C     1.64322   0.52060   0.32998
O     2.06944   1.61248   0.68327
N     0.36781   0.11396   0.59171
N    -0.02111  -0.99126  -0.00999
C    -1.26795  -1.41687   0.04823
C    -1.77199  -2.51752  -0.82434
C    -2.07976  -0.96962   1.14020
N    -2.75596  -0.75160   2.06274
C    -2.01309   0.56266  -1.14266
C    -1.22972   1.44748  -0.89449
C    -0.46875   2.69071  -0.77987
H     4.28514   0.20094   0.33788
H     4.20417  -0.87248  -1.10457
H     3.79589   0.87450  -1.25200
H     0.57059  -1.41600  -0.73859
H    -1.19032  -2.58093  -1.75177
H    -1.69450  -3.43428  -0.25451
H    -2.84071  -2.36355  -1.09706
H    -2.83630   0.03068  -1.53545
H     0.48719   2.64879  -1.30943
H    -0.27999   2.98516   0.25174
H    -1.10805   3.45132  -1.26459
24

C     3.75431  -0.00992  -0.60612
O     2.40046  -0.37991  -0.34203
C     1.64473   0.51745   0.33257
O     2.06980   1.61052   0.68412
N     0.37364   0.10650   0.60243
N    -0.02265  -0.98610  -0.01339
C    -1.25789  -1.43649   0.06303
C    -1.76931  -2.52202  -0.82293
C    -2.07739  -0.96979   1.14054
N    -2.75643  -0.74994   2.06103
C    -2.02578   0.58233  -1.15670
C    -1.24537   1.46020  -0.90680
C    -0.46595   2.69315  -0.77843
H     4.28521   0.20092   0.33762
H     4.20452  -0.87231  -1.10498
H     3.79598   0.87462  -1.25221
H     0.57261  -1.41771  -0.73635
H    -1.18928  -2.58132  -1.75125
H    -1.69662  -3.43761  -0.25662
H    -2.83958  -2.36170  -1.09681
H    -2.83645   0.02155  -1.53398
H     0.48817   2.64746  -1.30856
H    -0.27871   2.98356   0.25272
H    -1.10447   3.45491  -1.26331
24

C     3.75485  -0.00982  -0.60724
O     2.40172  -0.38089  -0.34333
C     1.64624   0.51430   0.33517
O     2.07015   1.60855   0.68497
N     0.37947   0.09905   0.61314
N    -0.02419  -0.98093  -0.01680
C    -1.24783  -1.45611   0.07783
C    -1.76662  -2.52653  -0.82151
C    -2.07502  -0.96997   1.14088
N    -2.75691  -0.74828   2.05931
C    -2.03846   0.60201  -1.17074
C    -1.26102   1.47292  -0.91910
C    -0.46315   2.69559  -0.77698
H     4.28528   0.20091   0.33735
H     4.20486  -0.87213  -1.10538
H     3.79608   0.87473  -1.25241
H     0.57463  -1.41943  -0.73411
H    -1.18824  -2.58171  -1.75073
H    -1.69874  -3.44094  -0.25872
H    -2.83845  -2.35986  -1.09655
H    -2.83661   0.01242  -1.53252
H     0.48915   2.64614  -1.30770
H    -0.27743   2.98195   0.25371
H    -1.10089   3.45849  -1.26203
24

C     3.75539  -0.00973  -0.60836
O     2.40298  -0.38186  -0.34463
C     1.64775   0.51115   0.33777
O     2.07050   1.60659   0.68582
N     0.38530   0.09159   0.62386
N    -0.02574  -0.97577  -0.02020
C    -1.23778  -1.47573   0.09262
C    -1.76393  -2.53103  -0.82010
C    -2.07264  -0.97015   1.14122
N    -2.75739  -0.74662   2.05759
C    -2.05115   0.62168  -1.18478
C    -1.27667   1.48564  -0.93140
C    -0.46035   2.69803  -0.77554
H     4.28536   0.20089   0.33709
H     4.20521  -0.87196  -1.10579
H     3.79618   0.87485  -1.25262
H     0.57665  -1.42114  -0.73187
H    -1.18721  -2.58209  -1.75022
H    -1.70086  -3.44428  -0.26083
H    -2.83732  -2.35801  -1.09630
H    -2.83676   0.00329  -1.53106
H     0.49014   2.64482  -1.30683
H    -0.27616   2.98035   0.25470
H    -1.09731   3.46208  -1.26075
