8

C -2.969252771 0.347708568 -1.277717646
H -2.612696563 -1.359791002 -2.350755918
H -4.925963432 0.952264099 -1.247463811
C -1.379896233 0.892136585 0.920000370
O -0.852659848 0.409927422 3.052544888
C -0.892191860 2.443989222 -1.317658311
H -1.515016300 4.395191520 -1.312773086
H 0.797545362 2.082528588 -2.416833026

