18

C -3.833565842 0.851210371 -1.674362277
C -2.010760003 -0.595898904 -0.009607273
C 0.352482772 -1.866606289 -1.191011380
C 1.985921858 -0.901438195 1.047897771
C 4.569417390 0.222789054 0.562389940
C -0.172663898 0.884466470 1.641967137
N -0.170871285 2.975565874 2.768482580
H -5.225805161 1.878895367 -0.548530840
H -2.826720500 2.221048801 -2.845109122
H -4.867009495 -0.423135720 -2.925182960
H -1.906782320 3.808670004 2.683702190
H -3.027458793 -1.961020937 1.166494243
H 0.271482345 -3.900760232 -1.495987514
H 0.889948490 -0.941028543 -2.956455111
H 2.087984209 -2.354751403 2.517234099
H 5.903311756 -1.221411253 -0.064959676
H 4.462811571 1.685086983 -0.889962644
H 5.314265036 1.095240721 2.274577561

