18

C -4.152018161 0.670828170 -1.713960846
C -2.263994320 -0.454362348 0.118292282
C 0.164534032 -1.566153668 -0.979828627
C 2.027850459 -0.729003653 1.081649527
C 4.678434840 0.065131225 0.328844868
C 0.343082178 1.383166574 1.979303489
N -0.001629265 3.439203621 2.942203137
H -5.767840805 1.509526702 -0.740513030
H -3.281160099 2.145197916 -2.870966264
H -4.898536306 -0.764893067 -3.004394723
H -1.846980841 2.153278328 1.740332144
H -3.156947305 -1.746933656 1.457769617
H 0.123689529 -3.602138850 -1.303368372
H 0.632127448 -0.637559334 -2.765801776
H 2.096441017 -2.145522949 2.588017892
H 5.722359670 -1.550573084 -0.414158443
H 4.611548985 1.524142940 -1.127727437
H 5.716344350 0.818047699 1.941583705

