17

C 3.913437724 1.149887027 -1.246575205
C 2.162664957 -0.713240956 -0.014828152
O 0.418156178 0.404135393 1.864201480
C -1.359972586 -1.753390662 1.225466964
C -3.765995528 -0.287727810 1.022830687
C -2.297008346 1.981705936 0.078158619
C -0.034463483 -1.879749977 -1.319784669
H 2.831000143 2.565104283 -2.282401028
H 5.122252459 2.083259629 0.141344768
H 5.117980922 0.153166554 -2.593030069
H 3.237208245 -2.030486041 1.205045393
H -1.092017755 -3.223039891 2.674576514
H -4.742247792 0.068254716 2.807293907
H -5.052110720 -1.062033131 -0.388700639
H -2.240233547 2.367787584 -1.919544604
H -2.125129365 3.614132828 1.301874204
H 0.104272385 -3.614980182 -2.412484747

