11

C -3.394194275 -0.422659320 0.265173248
N -0.679289154 -0.335942566 0.089409198
C 0.515090813 1.708008246 -0.203510956
N 3.161702291 1.772360829 -0.374599049
C 3.768023904 -0.557536443 -0.164806417
N 3.153270711 -2.779072605 0.108840382
H -4.144527759 -1.628177239 -1.230457579
H -3.945707047 -1.260022420 2.067507306
H -4.269575377 1.448307701 0.110789578
H -0.380560511 3.557754947 -0.345668211
H 5.707222208 -1.727259850 -0.162823641

