12

C -3.695590777 1.256898722 0.447800633
C -1.344639367 -0.332411461 0.461703084
H -1.487694715 -1.979032862 1.699321213
O -0.878861977 -1.334764906 -2.089376219
C 1.280468104 -0.724100834 -3.034817103
C 2.483570140 0.860029704 -0.978201554
N 4.628845044 1.851013082 -1.080655286
H 5.037895784 2.832874393 0.523018441
O 0.825340984 1.040911662 1.021759798
H -4.036298363 2.001528161 2.337220924
H -5.310022715 0.110705145 -0.118869518
H -3.477076813 2.826970510 -0.868201768

