18

C -4.585590006 0.048916657 -1.524048850
C -2.604196858 -1.058099231 0.248864402
C 0.057659153 -0.350750989 -0.510601712
C 2.214484705 -0.280204678 1.467144662
C 4.824601471 -1.209615790 0.797011797
C 1.201910583 2.025933899 0.348306477
N 1.372920555 4.389938988 0.302390800
H -6.490643000 -0.498960149 -0.955299056
H -4.497236126 2.111248684 -1.531234666
H -4.295837676 -0.598384612 -3.462864239
H -2.950732983 -0.396639964 2.176816133
H -2.769617455 -3.118961316 0.297619997
H 0.630492419 -0.994104941 -2.379001843
H 0.111813451 5.130071711 -0.954465403
H 1.606759064 -0.673059237 3.390904092
H 4.959412491 -3.258070311 1.006760626
H 5.295092234 -0.730623545 -1.154041893
H 6.246074645 -0.339380563 2.010824310

