18

C -4.602807981 -0.252610916 -1.722332181
C -2.553429876 -0.737238286 0.241199673
C 0.007030310 0.202417655 -0.595642317
C 2.192307257 -0.030006243 1.431125234
C 4.658014818 -1.223386205 0.615130817
C 1.761107566 2.592448601 1.006439183
N 1.561298433 4.870966014 0.738323140
H -6.429878895 -0.969709710 -1.088924633
H -4.806193516 1.767002605 -2.097830098
H -4.147697151 -1.178418471 -3.510734404
H -3.079869080 0.192218349 2.015646060
H -2.475393503 -2.768778567 0.664052292
H 0.660944335 -0.452579939 -2.433666650
H 0.128804621 3.347441091 -0.660391269
H 1.489821243 -0.715953602 3.241249632
H 4.392703166 -3.252787525 0.362055727
H 5.303494334 -0.425444965 -1.172459409
H 6.133535332 -0.924597375 2.022451719

