11

C -1.041831977 1.860244961 0.599164048
O -0.004524439 3.852788249 0.826679855
N -0.041572180 -0.375471006 -0.257913658
H 1.849010520 -0.534907332 -0.261222965
C -1.695286667 -2.472795753 0.304700442
H -1.194903252 -3.412249475 2.079828170
H -1.723911860 -3.872765054 -1.206187524
C -4.206047868 -1.051878952 0.510893014
H -5.453060488 -1.791744241 1.968916780
H -5.205248664 -1.015782991 -1.295638769
O -3.514648348 1.468210448 1.167063825

