11

N -2.198552424 2.161656618 0.497459820
C -2.427434484 -0.387994354 0.642171040
O -4.411782314 -1.466021389 1.051609647
C -0.052872723 -1.849543574 0.317257596
C 2.271805919 -0.778902968 -0.223722918
C 4.198438867 0.691225534 -0.225449958
H -3.712701567 3.210939804 0.950022411
H -0.498035374 2.991565013 0.368692521
H -0.261235305 -3.882180577 0.380041593
H 2.105159684 -2.102565638 -1.952215531
H 5.224665127 1.408232922 -1.842071502

