13

O 3.930951763 1.158895673 0.866932174
C 1.900405647 0.911792798 -0.105372697
C 0.623272418 -1.592760804 -0.517425816
C -1.219881519 -2.193894533 1.630381566
C -1.630649851 3.528784482 -1.902772132
N 0.582632025 3.174303268 -0.841704330
H -0.347440888 -1.627883726 -2.334948661
H 2.133571149 -2.990001189 -0.571352495
H -2.038952316 -4.063703851 1.357019605
H -0.246930985 -2.180101346 3.447023931
H -2.459101607 1.641237117 -2.232145689
H -2.764039550 -0.830993703 1.718216585
H 1.637294260 4.714409027 -0.392826421

