13

O 3.286463143 1.040543486 0.716469421
C 3.862699749 2.498831682 -1.151580487
C 1.716197677 -1.117069949 0.141139997
C -0.918036189 -0.629719030 1.059558081
C -2.769156097 0.638908938 -0.596700526
N -2.862638656 -2.093981500 -0.222390510
H 5.004334059 4.005487928 -0.223252490
H 2.574739165 -2.720781508 1.110108028
H 1.738494064 -1.411725060 -1.897415704
H -1.105654302 -0.331102524 3.081144381
H -2.188160178 1.238517394 -2.466606598
H -4.203680344 1.801694348 0.289161659
H -4.259917724 -2.577112113 0.988994536

