13

O 2.894963820 1.866710394 1.739874150
C 4.242826021 1.502487831 -0.257661549
C 1.876898664 -0.869576260 0.231551071
C -0.834275930 -0.568300418 1.042999167
C -2.676378160 0.695236912 -0.614018222
N -2.564019977 -2.058638349 -0.499868862
H 3.743394725 2.956924198 -1.740291742
H 2.899010839 -2.398045993 1.120335566
H 1.856237192 -1.014871406 -1.843075571
H -1.152024005 -0.477017953 3.063964012
H -2.050346647 1.512873520 -2.385833789
H -4.245373749 1.662274455 0.277738302
H -3.985606459 -2.775512739 0.558210036

