27

C    -2.48716   1.84216   0.10731
N    -1.60565   0.89082  -0.58656
O    -0.66376   1.42921  -1.25617
C     0.79206   1.06241   0.62108
C     1.92489   0.91569  -0.29715
O     2.47638   1.87162  -0.85237
C     2.46308  -0.46238  -0.46222
C     1.91778  -1.49637   0.19794
C     0.73938  -1.31576   1.09461
O     0.31993  -2.27608   1.75761
C     0.20281   0.03754   1.20804
C    -1.71730  -0.41009  -0.45294
C    -0.96146  -1.32188  -1.36812
C    -2.70314  -1.01749   0.48621
H    -2.39560   2.81262  -0.39382
H    -3.51350   1.51245   0.12809
H    -2.09273   1.94180   1.14458
H     0.49473   2.10019   0.83195
H     3.34293  -0.56533  -1.08951
H     2.32327  -2.50048   0.14406
H    -0.62846   0.14838   1.92118
H    -0.66998  -2.27564  -0.89669
H    -0.10074  -0.86673  -1.84958
H    -1.72672  -1.55213  -2.12079
H    -3.00678  -0.36641   1.31750
H    -2.28593  -1.94997   0.93758
H    -3.55101  -1.28546  -0.11957
27

C    -2.48464   1.84246   0.10806
N    -1.60953   0.89291  -0.59319
O    -0.64746   1.42875  -1.23719
C     0.77657   1.06496   0.60111
C     1.92305   0.91594  -0.30070
O     2.47647   1.87206  -0.85173
C     2.46285  -0.46118  -0.46096
C     1.91730  -1.49532   0.19918
C     0.73696  -1.31644   1.09318
O     0.32114  -2.27550   1.75917
C     0.18478   0.03041   1.19262
C    -1.70202  -0.41029  -0.43867
C    -0.96171  -1.32204  -1.36632
C    -2.69947  -1.01778   0.48833
H    -2.39562   2.81330  -0.39268
H    -3.51294   1.51290   0.12843
H    -2.09215   1.94149   1.14502
H     0.49638   2.09834   0.83431
H     3.34347  -0.56493  -1.08831
H     2.32377  -2.49995   0.14500
H    -0.62741   0.14837   1.92106
H    -0.66989  -2.27653  -0.89797
H    -0.10114  -0.86732  -1.85027
H    -1.72848  -1.55018  -2.11894
H    -3.00649  -0.36714   1.31834
H    -2.28723  -1.95114   0.93781
H    -3.54882  -1.28312  -0.12129
27

C    -2.48213   1.84276   0.10882
N    -1.61341   0.89500  -0.59982
O    -0.63116   1.42828  -1.21821
C     0.76108   1.06751   0.58115
C     1.92121   0.91618  -0.30425
O     2.47656   1.87249  -0.85110
C     2.46262  -0.45999  -0.45969
C     1.91682  -1.49426   0.20042
C     0.73454  -1.31711   1.09176
O     0.32235  -2.27491   1.76074
C     0.16675   0.02327   1.17720
C    -1.68674  -0.41050  -0.42439
C    -0.96196  -1.32220  -1.36451
C    -2.69579  -1.01807   0.49045
H    -2.39564   2.81399  -0.39154
H    -3.51237   1.51335   0.12876
H    -2.09156   1.94118   1.14546
H     0.49804   2.09649   0.83667
H     3.34401  -0.56453  -1.08710
H     2.32427  -2.49943   0.14595
H    -0.62636   0.14836   1.92095
H    -0.66981  -2.27741  -0.89926
H    -0.10154  -0.86791  -1.85095
H    -1.73023  -1.54822  -2.11709
H    -3.00621  -0.36787   1.31919
H    -2.28852  -1.95231   0.93804
H    -3.54663  -1.28077  -0.12301
27

C    -2.47961   1.84305   0.10957
N    -1.61730   0.89709  -0.60646
O    -0.61485   1.42781  -1.19922
C     0.74558   1.07006   0.56119
C     1.91938   0.91643  -0.30779
O     2.47664   1.87292  -0.85046
C     2.46239  -0.45880  -0.45842
C     1.91634  -1.49320   0.20166
C     0.73211  -1.31779   1.09034
O     0.32356  -2.27433   1.76230
C     0.14873   0.01614   1.16179
C    -1.67146  -0.41070  -0.41012
C    -0.96221  -1.32236  -1.36270
C    -2.69212  -1.01837   0.49257
H    -2.39565   2.81467  -0.39040
H    -3.51181   1.51379   0.12909
H    -2.09098   1.94087   1.14590
H     0.49969   2.09463   0.83903
H     3.34456  -0.56413  -1.08589
H     2.32477  -2.49890   0.14689
H    -0.62531   0.14835   1.92084
H    -0.66973  -2.27829  -0.90054
H    -0.10194  -0.86849  -1.85163
H    -1.73199  -1.54626  -2.11524
H    -3.00592  -0.36860   1.32004
H    -2.28982  -1.95349   0.93827
H    -3.54443  -1.27843  -0.12474
27

C    -2.47710   1.84335   0.11032
N    -1.62118   0.89918  -0.61309
O    -0.59855   1.42735  -1.18024
C     0.73009   1.07261   0.54122
C     1.91754   0.91668  -0.31134
O     2.47673   1.87335  -0.84983
C     2.46217  -0.45761  -0.45715
C     1.91586  -1.49214   0.20290
C     0.72969  -1.31847   1.08891
O     0.32476  -2.27374   1.76386
C     0.13070   0.00900   1.14637
C    -1.65619  -0.41091  -0.39584
C    -0.96247  -1.32252  -1.36090
C    -2.68844  -1.01866   0.49468
H    -2.39567   2.81536  -0.38925
H    -3.51125   1.51424   0.12943
H    -2.09039   1.94056   1.14634
H     0.50134   2.09278   0.84138
H     3.34510  -0.56373  -1.08468
H     2.32528  -2.49837   0.14784
H    -0.62426   0.14834   1.92072
H    -0.66965  -2.27918  -0.90183
H    -0.10235  -0.86908  -1.85232
H    -1.73374  -1.54430  -2.11339
H    -3.00563  -0.36933   1.32089
H    -2.29111  -1.95466   0.93850
H    -3.54224  -1.27609  -0.12646
27

C    -2.47458   1.84364   0.11107
N    -1.62506   0.90128  -0.61972
O    -0.58224   1.42688  -1.16126
C     0.71459   1.07516   0.52126
C     1.91570   0.91692  -0.31489
O     2.47681   1.87379  -0.84919
C     2.46194  -0.45642  -0.45588
C     1.91538  -1.49109   0.20414
C     0.72727  -1.31914   1.08749
O     0.32597  -2.27316   1.76542
C     0.11267   0.00187   1.13095
C    -1.64091  -0.41112  -0.38156
C    -0.96272  -1.32268  -1.35909
C    -2.68476  -1.01895   0.49680
H    -2.39569   2.81604  -0.38811
H    -3.51068   1.51469   0.12976
H    -2.08981   1.94025   1.14678
H     0.50299   2.09092   0.84374
H     3.34564  -0.56333  -1.08348
H     2.32578  -2.49785   0.14878
H    -0.62321   0.14832   1.92061
H    -0.66957  -2.28006  -0.90311
H    -0.10275  -0.86967  -1.85300
H    -1.73550  -1.54235  -2.11154
H    -3.00534  -0.37006   1.32174
H    -2.29240  -1.95583   0.93874
H    -3.54005  -1.27375  -0.12819
27

C    -2.47207   1.84394   0.11183
N    -1.62895   0.90337  -0.62635
O    -0.56594   1.42642  -1.14228
C     0.69910   1.07771   0.50129
C     1.91386   0.91717  -0.31843
O     2.47690   1.87422  -0.84856
C     2.46171  -0.45523  -0.45461
C     1.91490  -1.49003   0.20538
C     0.72484  -1.31982   1.08607
O     0.32718  -2.27257   1.76698
C     0.09464  -0.00527   1.11554
C    -1.62563  -0.41132  -0.36729
C    -0.96297  -1.32283  -1.35728
C    -2.68109  -1.01925   0.49892
H    -2.39571   2.81673  -0.38697
H    -3.51012   1.51514   0.13009
H    -2.08922   1.93994   1.14722
H     0.50465   2.08907   0.84610
H     3.34618  -0.56293  -1.08227
H     2.32628  -2.49732   0.14973
H    -0.62216   0.14831   1.92049
H    -0.66949  -2.28095  -0.90440
H    -0.10315  -0.87025  -1.85369
H    -1.73726  -1.54039  -2.10969
H    -3.00505  -0.37080   1.32259
H    -2.29370  -1.95700   0.93897
H    -3.53785  -1.27141  -0.12991
27

C    -2.46955   1.84424   0.11258
N    -1.63283   0.90546  -0.63299
O    -0.54963   1.42595  -1.12330
C     0.68361   1.08026   0.48133
C     1.91203   0.91742  -0.32198
O     2.47698   1.87465  -0.84792
C     2.46148  -0.45404  -0.45335
C     1.91442  -1.48897   0.20662
C     0.72242  -1.32049   1.08464
O     0.32839  -2.27199   1.76855
C     0.07662  -0.01240   1.10012
C    -1.61035  -0.41153  -0.35301
C    -0.96322  -1.32299  -1.35548
C    -2.67741  -1.01954   0.50104
H    -2.39573   2.81741  -0.38583
H    -3.50956   1.51559   0.13043
H    -2.08864   1.93963   1.14767
H     0.50630   2.08721   0.84846
H     3.34673  -0.56253  -1.08106
H     2.32678  -2.49679   0.15068
H    -0.62111   0.14830   1.92038
H    -0.66941  -2.28183  -0.90568
H    -0.10355  -0.87084  -1.85437
H    -1.73901  -1.53843  -2.10784
H    -3.00477  -0.37153   1.32344
H    -2.29499  -1.95817   0.93920
H    -3.53566  -1.26907  -0.13163
27

C    -2.46704   1.84453   0.11333
N    -1.63672   0.90755  -0.63962
O    -0.53333   1.42548  -1.10432
C     0.66811   1.08281   0.46136
C     1.91019   0.91767  -0.32552
O     2.47707   1.87508  -0.84728
C     2.46125  -0.45285  -0.45208
C     1.91394  -1.48791   0.20786
C     0.72000  -1.32117   1.08322
O     0.32960  -2.27140   1.77011
C     0.05859  -0.01954   1.08470
C    -1.59508  -0.41173  -0.33874
C    -0.96347  -1.32315  -1.35367
C    -2.67374  -1.01983   0.50316
H    -2.39574   2.81810  -0.38469
H    -3.50900   1.51603   0.13076
H    -2.08805   1.93932   1.14811
H     0.50795   2.08536   0.85081
H     3.34727  -0.56213  -1.07986
H     2.32728  -2.49627   0.15162
H    -0.62007   0.14829   1.92027
H    -0.66933  -2.28271  -0.90697
H    -0.10395  -0.87143  -1.85506
H    -1.74077  -1.53647  -2.10599
H    -3.00448  -0.37226   1.32429
H    -2.29629  -1.95934   0.93943
H    -3.53347  -1.26673  -0.13336
27

C    -2.46452   1.84483   0.11409
N    -1.64060   0.90964  -0.64625
O    -0.51703   1.42502  -1.08534
C     0.65262   1.08535   0.44140
C     1.90835   0.91791  -0.32907
O     2.47716   1.87552  -0.84665
C     2.46102  -0.45166  -0.45081
C     1.91346  -1.48686   0.20910
C     0.71757  -1.32185   1.08180
O     0.33081  -2.27082   1.77167
C     0.04056  -0.02668   1.06928
C    -1.57980  -0.41194  -0.32446
C    -0.96372  -1.32331  -1.35186
C    -2.67006  -1.02013   0.50528
H    -2.39576   2.81878  -0.38355
H    -3.50843   1.51648   0.13109
H    -2.08747   1.93901   1.14855
H     0.50961   2.08351   0.85317
H     3.34781  -0.56173  -1.07865
H     2.32779  -2.49574   0.15257
H    -0.61902   0.14828   1.92015
H    -0.66925  -2.28360  -0.90825
H    -0.10436  -0.87201  -1.85574
H    -1.74252  -1.53452  -2.10414
H    -3.00419  -0.37299   1.32514
H    -2.29758  -1.96051   0.93966
H    -3.53127  -1.26439  -0.13508
27

C    -2.46200   1.84513   0.11484
N    -1.64448   0.91173  -0.65289
O    -0.50072   1.42455  -1.06635
C     0.63712   1.08790   0.42144
C     1.90652   0.91816  -0.33262
O     2.47724   1.87595  -0.84601
C     2.46079  -0.45047  -0.44954
C     1.91298  -1.48580   0.21034
C     0.71515  -1.32252   1.08037
O     0.33202  -2.27023   1.77323
C     0.02253  -0.03381   1.05387
C    -1.56452  -0.41215  -0.31019
C    -0.96397  -1.32347  -1.35006
C    -2.66639  -1.02042   0.50739
H    -2.39578   2.81947  -0.38240
H    -3.50787   1.51693   0.13142
H    -2.08688   1.93870   1.14899
H     0.51126   2.08165   0.85553
H     3.34835  -0.56133  -1.07744
H     2.32829  -2.49521   0.15351
H    -0.61797   0.14827   1.92004
H    -0.66917  -2.28448  -0.90954
H    -0.10476  -0.87260  -1.85642
H    -1.74428  -1.53256  -2.10229
H    -3.00390  -0.37372   1.32598
H    -2.29888  -1.96168   0.93989
H    -3.52908  -1.26205  -0.13680
27

C    -2.45949   1.84542   0.11559
N    -1.64837   0.91382  -0.65952
O    -0.48442   1.42408  -1.04737
C     0.62163   1.09045   0.40147
C     1.90468   0.91841  -0.33616
O     2.47733   1.87638  -0.84538
C     2.46056  -0.44928  -0.44827
C     1.91250  -1.48474   0.21158
C     0.71273  -1.32320   1.07895
O     0.33322  -2.26965   1.77479
C     0.00451  -0.04095   1.03845
C    -1.54924  -0.41235  -0.29591
C    -0.96422  -1.32363  -1.34825
C    -2.66271  -1.02071   0.50951
H    -2.39580   2.82015  -0.38126
H    -3.50731   1.51738   0.13176
H    -2.08630   1.93839   1.14943
H     0.51291   2.07980   0.85789
H     3.34890  -0.56093  -1.07624
H     2.32879  -2.49469   0.15446
H    -0.61692   0.14825   1.91992
H    -0.66909  -2.28536  -0.91082
H    -0.10516  -0.87319  -1.85711
H    -1.74603  -1.53060  -2.10044
H    -3.00361  -0.37445   1.32683
H    -2.30017  -1.96285   0.94012
H    -3.52689  -1.25971  -0.13853
27

C    -2.45697   1.84572   0.11635
N    -1.65225   0.91592  -0.66615
O    -0.46811   1.42362  -1.02839
C     0.60614   1.09300   0.38151
C     1.90284   0.91865  -0.33971
O     2.47741   1.87682  -0.84474
C     2.46033  -0.44809  -0.44700
C     1.91202  -1.48369   0.21282
C     0.71030  -1.32387   1.07753
O     0.33443  -2.26906   1.77636
C    -0.01352  -0.04808   1.02303
C    -1.53397  -0.41256  -0.28164
C    -0.96447  -1.32379  -1.34644
C    -2.65903  -1.02101   0.51163
H    -2.39582   2.82084  -0.38012
H    -3.50675   1.51783   0.13209
H    -2.08571   1.93808   1.14987
H     0.51456   2.07794   0.86024
H     3.34944  -0.56054  -1.07503
H     2.32929  -2.49416   0.15541
H    -0.61587   0.14824   1.91981
H    -0.66901  -2.28625  -0.91211
H    -0.10556  -0.87378  -1.85779
H    -1.74779  -1.52864  -2.09860
H    -3.00333  -0.37518   1.32768
H    -2.30146  -1.96403   0.94035
H    -3.52469  -1.25737  -0.14025
27

C    -2.45446   1.84601   0.11710
N    -1.65613   0.91801  -0.67278
O    -0.45181   1.42315  -1.00941
C     0.59064   1.09555   0.36154
C     1.90100   0.91890  -0.34326
O     2.47750   1.87725  -0.84410
C     2.46010  -0.44690  -0.44574
C     1.91154  -1.48263   0.21406
C     0.70788  -1.32455   1.07610
O     0.33564  -2.26848   1.77792
C    -0.03155  -0.05522   1.00761
C    -1.51869  -0.41276  -0.26736
C    -0.96473  -1.32395  -1.34464
C    -2.65536  -1.02130   0.51375
H    -2.39583   2.82152  -0.37898
H    -3.50618   1.51828   0.13242
H    -2.08513   1.93777   1.15031
H     0.51622   2.07609   0.86260
H     3.34998  -0.56014  -1.07382
H     2.32980  -2.49364   0.15635
H    -0.61482   0.14823   1.91969
H    -0.66893  -2.28713  -0.91340
H    -0.10596  -0.87436  -1.85848
H    -1.74954  -1.52669  -2.09675
H    -3.00304  -0.37591   1.32853
H    -2.30276  -1.96520   0.94058
H    -3.52250  -1.25503  -0.14198
27

C    -2.45194   1.84631   0.11785
N    -1.66002   0.92010  -0.67942
O    -0.43551   1.42269  -0.99043
C     0.57515   1.09810   0.34158
C     1.89917   0.91915  -0.34680
O     2.47759   1.87768  -0.84347
C     2.45987  -0.44570  -0.44447
C     1.91106  -1.48157   0.21530
C     0.70546  -1.32523   1.07468
O     0.33685  -2.26789   1.77948
C    -0.04957  -0.06235   0.99220
C    -1.50341  -0.41297  -0.25308
C    -0.96498  -1.32411  -1.34283
C    -2.65168  -1.02159   0.51587
H    -2.39585   2.82220  -0.37784
H    -3.50562   1.51872   0.13276
H    -2.08454   1.93746   1.15075
H     0.51787   2.07424   0.86496
H     3.35053  -0.55974  -1.07262
H     2.33030  -2.49311   0.15730
H    -0.61377   0.14822   1.91958
H    -0.66885  -2.28802  -0.91468
H    -0.10636  -0.87495  -1.85916
H    -1.75130  -1.52473  -2.09490
H    -3.00275  -0.37665   1.32938
H    -2.30405  -1.96637   0.94081
H    -3.52031  -1.25269  -0.14370
27

C    -2.44943   1.84661   0.11860
N    -1.66390   0.92219  -0.68605
O    -0.41920   1.42222  -0.97145
C     0.55965   1.10065   0.32161
C     1.89733   0.91939  -0.35035
O     2.47767   1.87811  -0.84283
C     2.45965  -0.44451  -0.44320
C     1.91058  -1.48051   0.21654
C     0.70303  -1.32590   1.07326
O     0.33806  -2.26731   1.78104
C    -0.06760  -0.06949   0.97678
C    -1.48813  -0.41318  -0.23881
C    -0.96523  -1.32427  -1.34102
C    -2.64801  -1.02188   0.51798
H    -2.39587   2.82289  -0.37670
H    -3.50506   1.51917   0.13309
H    -2.08396   1.93715   1.15120
H     0.51952   2.07238   0.86732
H     3.35107  -0.55934  -1.07141
H     2.33080  -2.49258   0.15824
H    -0.61272   0.14821   1.91947
H    -0.66876  -2.28890  -0.91597
H    -0.10677  -0.87554  -1.85984
H    -1.75305  -1.52277  -2.09305
H    -3.00246  -0.37738   1.33023
H    -2.30535  -1.96754   0.94105
H    -3.51812  -1.25035  -0.14542
27

C    -2.44691   1.84690   0.11936
N    -1.66778   0.92428  -0.69268
O    -0.40290   1.42175  -0.95247
C     0.54416   1.10320   0.30165
C     1.89549   0.91964  -0.35389
O     2.47776   1.87855  -0.84220
C     2.45942  -0.44332  -0.44193
C     1.91010  -1.47946   0.21778
C     0.70061  -1.32658   1.07183
O     0.33927  -2.26672   1.78261
C    -0.08563  -0.07662   0.96136
C    -1.47286  -0.41338  -0.22453
C    -0.96548  -1.32443  -1.33921
C    -2.64433  -1.02218   0.52010
H    -2.39589   2.82357  -0.37555
H    -3.50449   1.51962   0.13342
H    -2.08337   1.93684   1.15164
H     0.52118   2.07053   0.86968
H     3.35161  -0.55894  -1.07020
H     2.33130  -2.49206   0.15919
H    -0.61167   0.14819   1.91935
H    -0.66868  -2.28978  -0.91725
H    -0.10717  -0.87612  -1.86053
H    -1.75481  -1.52081  -2.09120
H    -3.00217  -0.37811   1.33108
H    -2.30664  -1.96871   0.94128
H    -3.51592  -1.24801  -0.14715
27

C    -2.44439   1.84720   0.12011
N    -1.67167   0.92637  -0.69932
O    -0.38659   1.42129  -0.93348
C     0.52867   1.10575   0.28168
C     1.89366   0.91989  -0.35744
O     2.47784   1.87898  -0.84156
C     2.45919  -0.44213  -0.44066
C     1.90962  -1.47840   0.21902
C     0.69819  -1.32725   1.07041
O     0.34048  -2.26614   1.78417
C    -0.10366  -0.08376   0.94595
C    -1.45758  -0.41359  -0.21026
C    -0.96573  -1.32458  -1.33741
C    -2.64066  -1.02247   0.52222
H    -2.39591   2.82426  -0.37441
H    -3.50393   1.52007   0.13376
H    -2.08279   1.93653   1.15208
H     0.52283   2.06867   0.87203
H     3.35215  -0.55854  -1.06900
H     2.33180  -2.49153   0.16014
H    -0.61063   0.14818   1.91924
H    -0.66860  -2.29067  -0.91854
H    -0.10757  -0.87671  -1.86121
H    -1.75657  -1.51885  -2.08935
H    -3.00189  -0.37884   1.33193
H    -2.30793  -1.96988   0.94151
H    -3.51373  -1.24567  -0.14887
27

C    -2.44188   1.84750   0.12086
N    -1.67555   0.92846  -0.70595
O    -0.37029   1.42082  -0.91450
C     0.51317   1.10830   0.26172
C     1.89182   0.92013  -0.36099
O     2.47793   1.87941  -0.84092
C     2.45896  -0.44094  -0.43940
C     1.90914  -1.47734   0.22026
C     0.69576  -1.32793   1.06899
O     0.34169  -2.26555   1.78573
C    -0.12168  -0.09089   0.93053
C    -1.44230  -0.41379  -0.19598
C    -0.96598  -1.32474  -1.33560
C    -2.63698  -1.02276   0.52434
H    -2.39592   2.82494  -0.37327
H    -3.50337   1.52052   0.13409
H    -2.08220   1.93622   1.15252
H     0.52448   2.06682   0.87439
H     3.35270  -0.55814  -1.06779
H     2.33231  -2.49100   0.16108
H    -0.60958   0.14817   1.91912
H    -0.66852  -2.29155  -0.91982
H    -0.10797  -0.87730  -1.86190
H    -1.75832  -1.51690  -2.08750
H    -3.00160  -0.37957   1.33278
H    -2.30923  -1.97105   0.94174
H    -3.51154  -1.24332  -0.15060
27

C    -2.43936   1.84779   0.12162
N    -1.67943   0.93056  -0.71258
O    -0.35398   1.42035  -0.89552
C     0.49768   1.11085   0.24176
C     1.88998   0.92038  -0.36453
O     2.47801   1.87985  -0.84029
C     2.45873  -0.43975  -0.43813
C     1.90866  -1.47628   0.22150
C     0.69334  -1.32861   1.06756
O     0.34289  -2.26497   1.78729
C    -0.13971  -0.09803   0.91511
C    -1.42702  -0.41400  -0.18171
C    -0.96623  -1.32490  -1.33379
C    -2.63331  -1.02306   0.52646
H    -2.39594   2.82563  -0.37213
H    -3.50281   1.52096   0.13442
H    -2.08162   1.93591   1.15296
H     0.52613   2.06496   0.87675
H     3.35324  -0.55774  -1.06658
H     2.33281  -2.49048   0.16203
H    -0.60853   0.14816   1.91901
H    -0.66844  -2.29244  -0.92111
H    -0.10837  -0.87788  -1.86258
H    -1.76008  -1.51494  -2.08565
H    -3.00131  -0.38030   1.33362
H    -2.31052  -1.97222   0.94197
H    -3.50934  -1.24098  -0.15232
27

C    -2.43685   1.84809   0.12237
N    -1.68332   0.93265  -0.71921
O    -0.33768   1.41989  -0.87654
C     0.48218   1.11340   0.22179
C     1.88814   0.92063  -0.36808
O     2.47810   1.88028  -0.83965
C     2.45850  -0.43856  -0.43686
C     1.90818  -1.47523   0.22274
C     0.69092  -1.32928   1.06614
O     0.34410  -2.26438   1.78885
C    -0.15774  -0.10517   0.89969
C    -1.41174  -0.41421  -0.16743
C    -0.96648  -1.32506  -1.33199
C    -2.62963  -1.02335   0.52858
H    -2.39596   2.82631  -0.37099
H    -3.50224   1.52141   0.13475
H    -2.08103   1.93560   1.15340
H     0.52779   2.06311   0.87911
H     3.35378  -0.55734  -1.06538
H     2.33331  -2.48995   0.16297
H    -0.60748   0.14815   1.91890
H    -0.66836  -2.29332  -0.92239
H    -0.10877  -0.87847  -1.86327
H    -1.76183  -1.51298  -2.08380
H    -3.00102  -0.38103   1.33447
H    -2.31182  -1.97339   0.94220
H    -3.50715  -1.23864  -0.15404
27

C    -2.43936   1.84779   0.12162
N    -1.67943   0.93056  -0.71258
O    -0.35398   1.42035  -0.89552
C     0.49768   1.11085   0.24176
C     1.88998   0.92038  -0.36453
O     2.47801   1.87985  -0.84029
C     2.45873  -0.43975  -0.43813
C     1.90866  -1.47628   0.22150
C     0.69334  -1.32861   1.06756
O     0.34289  -2.26497   1.78729
C    -0.13971  -0.09803   0.91511
C    -1.42702  -0.41400  -0.18171
C    -0.96623  -1.32490  -1.33379
C    -2.63331  -1.02306   0.52646
H    -2.39594   2.82563  -0.37213
H    -3.50281   1.52096   0.13442
H    -2.08162   1.93591   1.15296
H     0.52613   2.06496   0.87675
H     3.35324  -0.55774  -1.06658
H     2.33281  -2.49048   0.16203
H    -0.60853   0.14816   1.91901
H    -0.66844  -2.29244  -0.92111
H    -0.10837  -0.87788  -1.86258
H    -1.76008  -1.51494  -2.08565
H    -3.00131  -0.38030   1.33362
H    -2.31052  -1.97222   0.94197
H    -3.50934  -1.24098  -0.15232
27

C    -2.44188   1.84750   0.12086
N    -1.67555   0.92846  -0.70595
O    -0.37029   1.42082  -0.91450
C     0.51317   1.10830   0.26172
C     1.89182   0.92013  -0.36099
O     2.47793   1.87941  -0.84092
C     2.45896  -0.44094  -0.43940
C     1.90914  -1.47734   0.22026
C     0.69576  -1.32793   1.06899
O     0.34169  -2.26555   1.78573
C    -0.12168  -0.09089   0.93053
C    -1.44230  -0.41379  -0.19598
C    -0.96598  -1.32474  -1.33560
C    -2.63698  -1.02276   0.52434
H    -2.39592   2.82494  -0.37327
H    -3.50337   1.52052   0.13409
H    -2.08220   1.93622   1.15252
H     0.52448   2.06682   0.87439
H     3.35270  -0.55814  -1.06779
H     2.33231  -2.49100   0.16108
H    -0.60958   0.14817   1.91912
H    -0.66852  -2.29155  -0.91982
H    -0.10797  -0.87730  -1.86190
H    -1.75832  -1.51690  -2.08750
H    -3.00160  -0.37957   1.33278
H    -2.30923  -1.97105   0.94174
H    -3.51154  -1.24332  -0.15060
27

C    -2.44439   1.84720   0.12011
N    -1.67167   0.92637  -0.69932
O    -0.38659   1.42129  -0.93348
C     0.52867   1.10575   0.28168
C     1.89366   0.91989  -0.35744
O     2.47784   1.87898  -0.84156
C     2.45919  -0.44213  -0.44066
C     1.90962  -1.47840   0.21902
C     0.69819  -1.32725   1.07041
O     0.34048  -2.26614   1.78417
C    -0.10366  -0.08376   0.94595
C    -1.45758  -0.41359  -0.21026
C    -0.96573  -1.32458  -1.33741
C    -2.64066  -1.02247   0.52222
H    -2.39591   2.82426  -0.37441
H    -3.50393   1.52007   0.13376
H    -2.08279   1.93653   1.15208
H     0.52283   2.06867   0.87203
H     3.35215  -0.55854  -1.06900
H     2.33180  -2.49153   0.16014
H    -0.61063   0.14818   1.91924
H    -0.66860  -2.29067  -0.91854
H    -0.10757  -0.87671  -1.86121
H    -1.75657  -1.51885  -2.08935
H    -3.00189  -0.37884   1.33193
H    -2.30793  -1.96988   0.94151
H    -3.51373  -1.24567  -0.14887
27

C    -2.44691   1.84690   0.11936
N    -1.66778   0.92428  -0.69268
O    -0.40290   1.42175  -0.95247
C     0.54416   1.10320   0.30165
C     1.89549   0.91964  -0.35389
O     2.47776   1.87855  -0.84220
C     2.45942  -0.44332  -0.44193
C     1.91010  -1.47946   0.21778
C     0.70061  -1.32658   1.07183
O     0.33927  -2.26672   1.78261
C    -0.08563  -0.07662   0.96136
C    -1.47286  -0.41338  -0.22453
C    -0.96548  -1.32443  -1.33921
C    -2.64433  -1.02218   0.52010
H    -2.39589   2.82357  -0.37555
H    -3.50449   1.51962   0.13342
H    -2.08337   1.93684   1.15164
H     0.52118   2.07053   0.86968
H     3.35161  -0.55894  -1.07020
H     2.33130  -2.49206   0.15919
H    -0.61167   0.14819   1.91935
H    -0.66868  -2.28978  -0.91725
H    -0.10717  -0.87612  -1.86053
H    -1.75481  -1.52081  -2.09120
H    -3.00217  -0.37811   1.33108
H    -2.30664  -1.96871   0.94128
H    -3.51592  -1.24801  -0.14715
27

C    -2.44943   1.84661   0.11860
N    -1.66390   0.92219  -0.68605
O    -0.41920   1.42222  -0.97145
C     0.55965   1.10065   0.32161
C     1.89733   0.91939  -0.35035
O     2.47767   1.87811  -0.84283
C     2.45965  -0.44451  -0.44320
C     1.91058  -1.48051   0.21654
C     0.70303  -1.32590   1.07326
O     0.33806  -2.26731   1.78104
C    -0.06760  -0.06949   0.97678
C    -1.48813  -0.41318  -0.23881
C    -0.96523  -1.32427  -1.34102
C    -2.64801  -1.02188   0.51798
H    -2.39587   2.82289  -0.37670
H    -3.50506   1.51917   0.13309
H    -2.08396   1.93715   1.15120
H     0.51952   2.07238   0.86732
H     3.35107  -0.55934  -1.07141
H     2.33080  -2.49258   0.15824
H    -0.61272   0.14821   1.91947
H    -0.66876  -2.28890  -0.91597
H    -0.10677  -0.87554  -1.85984
H    -1.75305  -1.52277  -2.09305
H    -3.00246  -0.37738   1.33023
H    -2.30535  -1.96754   0.94105
H    -3.51812  -1.25035  -0.14542
27

C    -2.45194   1.84631   0.11785
N    -1.66002   0.92010  -0.67942
O    -0.43551   1.42269  -0.99043
C     0.57515   1.09810   0.34158
C     1.89917   0.91915  -0.34680
O     2.47759   1.87768  -0.84347
C     2.45987  -0.44570  -0.44447
C     1.91106  -1.48157   0.21530
C     0.70546  -1.32523   1.07468
O     0.33685  -2.26789   1.77948
C    -0.04957  -0.06235   0.99220
C    -1.50341  -0.41297  -0.25308
C    -0.96498  -1.32411  -1.34283
C    -2.65168  -1.02159   0.51587
H    -2.39585   2.82220  -0.37784
H    -3.50562   1.51872   0.13276
H    -2.08454   1.93746   1.15075
H     0.51787   2.07424   0.86496
H     3.35053  -0.55974  -1.07262
H     2.33030  -2.49311   0.15730
H    -0.61377   0.14822   1.91958
H    -0.66885  -2.28802  -0.91468
H    -0.10636  -0.87495  -1.85916
H    -1.75130  -1.52473  -2.09490
H    -3.00275  -0.37665   1.32938
H    -2.30405  -1.96637   0.94081
H    -3.52031  -1.25269  -0.14370
27

C    -2.45446   1.84601   0.11710
N    -1.65613   0.91801  -0.67278
O    -0.45181   1.42315  -1.00941
C     0.59064   1.09555   0.36154
C     1.90100   0.91890  -0.34326
O     2.47750   1.87725  -0.84410
C     2.46010  -0.44690  -0.44574
C     1.91154  -1.48263   0.21406
C     0.70788  -1.32455   1.07610
O     0.33564  -2.26848   1.77792
C    -0.03155  -0.05522   1.00761
C    -1.51869  -0.41276  -0.26736
C    -0.96473  -1.32395  -1.34464
C    -2.65536  -1.02130   0.51375
H    -2.39583   2.82152  -0.37898
H    -3.50618   1.51828   0.13242
H    -2.08513   1.93777   1.15031
H     0.51622   2.07609   0.86260
H     3.34998  -0.56014  -1.07382
H     2.32980  -2.49364   0.15635
H    -0.61482   0.14823   1.91969
H    -0.66893  -2.28713  -0.91340
H    -0.10596  -0.87436  -1.85848
H    -1.74954  -1.52669  -2.09675
H    -3.00304  -0.37591   1.32853
H    -2.30276  -1.96520   0.94058
H    -3.52250  -1.25503  -0.14198
27

C    -2.45697   1.84572   0.11635
N    -1.65225   0.91592  -0.66615
O    -0.46811   1.42362  -1.02839
C     0.60614   1.09300   0.38151
C     1.90284   0.91865  -0.33971
O     2.47741   1.87682  -0.84474
C     2.46033  -0.44809  -0.44700
C     1.91202  -1.48369   0.21282
C     0.71030  -1.32387   1.07753
O     0.33443  -2.26906   1.77636
C    -0.01352  -0.04808   1.02303
C    -1.53397  -0.41256  -0.28164
C    -0.96447  -1.32379  -1.34644
C    -2.65903  -1.02101   0.51163
H    -2.39582   2.82084  -0.38012
H    -3.50675   1.51783   0.13209
H    -2.08571   1.93808   1.14987
H     0.51456   2.07794   0.86024
H     3.34944  -0.56054  -1.07503
H     2.32929  -2.49416   0.15541
H    -0.61587   0.14824   1.91981
H    -0.66901  -2.28625  -0.91211
H    -0.10556  -0.87378  -1.85779
H    -1.74779  -1.52864  -2.09860
H    -3.00333  -0.37518   1.32768
H    -2.30146  -1.96403   0.94035
H    -3.52469  -1.25737  -0.14025
27

C    -2.45949   1.84542   0.11559
N    -1.64837   0.91382  -0.65952
O    -0.48442   1.42408  -1.04737
C     0.62163   1.09045   0.40147
C     1.90468   0.91841  -0.33616
O     2.47733   1.87638  -0.84538
C     2.46056  -0.44928  -0.44827
C     1.91250  -1.48474   0.21158
C     0.71273  -1.32320   1.07895
O     0.33322  -2.26965   1.77479
C     0.00451  -0.04095   1.03845
C    -1.54924  -0.41235  -0.29591
C    -0.96422  -1.32363  -1.34825
C    -2.66271  -1.02071   0.50951
H    -2.39580   2.82015  -0.38126
H    -3.50731   1.51738   0.13176
H    -2.08630   1.93839   1.14943
H     0.51291   2.07980   0.85789
H     3.34890  -0.56093  -1.07624
H     2.32879  -2.49469   0.15446
H    -0.61692   0.14825   1.91992
H    -0.66909  -2.28536  -0.91082
H    -0.10516  -0.87319  -1.85711
H    -1.74603  -1.53060  -2.10044
H    -3.00361  -0.37445   1.32683
H    -2.30017  -1.96285   0.94012
H    -3.52689  -1.25971  -0.13853
27

C    -2.46200   1.84513   0.11484
N    -1.64448   0.91173  -0.65289
O    -0.50072   1.42455  -1.06635
C     0.63712   1.08790   0.42144
C     1.90652   0.91816  -0.33262
O     2.47724   1.87595  -0.84601
C     2.46079  -0.45047  -0.44954
C     1.91298  -1.48580   0.21034
C     0.71515  -1.32252   1.08037
O     0.33202  -2.27023   1.77323
C     0.02253  -0.03381   1.05387
C    -1.56452  -0.41215  -0.31019
C    -0.96397  -1.32347  -1.35006
C    -2.66639  -1.02042   0.50739
H    -2.39578   2.81947  -0.38240
H    -3.50787   1.51693   0.13142
H    -2.08688   1.93870   1.14899
H     0.51126   2.08165   0.85553
H     3.34835  -0.56133  -1.07744
H     2.32829  -2.49521   0.15351
H    -0.61797   0.14827   1.92004
H    -0.66917  -2.28448  -0.90954
H    -0.10476  -0.87260  -1.85642
H    -1.74428  -1.53256  -2.10229
H    -3.00390  -0.37372   1.32598
H    -2.29888  -1.96168   0.93989
H    -3.52908  -1.26205  -0.13680
27

C    -2.46452   1.84483   0.11409
N    -1.64060   0.90964  -0.64625
O    -0.51703   1.42502  -1.08534
C     0.65262   1.08535   0.44140
C     1.90835   0.91791  -0.32907
O     2.47716   1.87552  -0.84665
C     2.46102  -0.45166  -0.45081
C     1.91346  -1.48686   0.20910
C     0.71757  -1.32185   1.08180
O     0.33081  -2.27082   1.77167
C     0.04056  -0.02668   1.06928
C    -1.57980  -0.41194  -0.32446
C    -0.96372  -1.32331  -1.35186
C    -2.67006  -1.02013   0.50528
H    -2.39576   2.81878  -0.38355
H    -3.50843   1.51648   0.13109
H    -2.08747   1.93901   1.14855
H     0.50961   2.08351   0.85317
H     3.34781  -0.56173  -1.07865
H     2.32779  -2.49574   0.15257
H    -0.61902   0.14828   1.92015
H    -0.66925  -2.28360  -0.90825
H    -0.10436  -0.87201  -1.85574
H    -1.74252  -1.53452  -2.10414
H    -3.00419  -0.37299   1.32514
H    -2.29758  -1.96051   0.93966
H    -3.53127  -1.26439  -0.13508
27

C    -2.46704   1.84453   0.11333
N    -1.63672   0.90755  -0.63962
O    -0.53333   1.42548  -1.10432
C     0.66811   1.08281   0.46136
C     1.91019   0.91767  -0.32552
O     2.47707   1.87508  -0.84728
C     2.46125  -0.45285  -0.45208
C     1.91394  -1.48791   0.20786
C     0.72000  -1.32117   1.08322
O     0.32960  -2.27140   1.77011
C     0.05859  -0.01954   1.08470
C    -1.59508  -0.41173  -0.33874
C    -0.96347  -1.32315  -1.35367
C    -2.67374  -1.01983   0.50316
H    -2.39574   2.81810  -0.38469
H    -3.50900   1.51603   0.13076
H    -2.08805   1.93932   1.14811
H     0.50795   2.08536   0.85081
H     3.34727  -0.56213  -1.07986
H     2.32728  -2.49627   0.15162
H    -0.62007   0.14829   1.92027
H    -0.66933  -2.28271  -0.90697
H    -0.10395  -0.87143  -1.85506
H    -1.74077  -1.53647  -2.10599
H    -3.00448  -0.37226   1.32429
H    -2.29629  -1.95934   0.93943
H    -3.53347  -1.26673  -0.13336
27

C    -2.46955   1.84424   0.11258
N    -1.63283   0.90546  -0.63299
O    -0.54963   1.42595  -1.12330
C     0.68361   1.08026   0.48133
C     1.91203   0.91742  -0.32198
O     2.47698   1.87465  -0.84792
C     2.46148  -0.45404  -0.45335
C     1.91442  -1.48897   0.20662
C     0.72242  -1.32049   1.08464
O     0.32839  -2.27199   1.76855
C     0.07662  -0.01240   1.10012
C    -1.61035  -0.41153  -0.35301
C    -0.96322  -1.32299  -1.35548
C    -2.67741  -1.01954   0.50104
H    -2.39573   2.81741  -0.38583
H    -3.50956   1.51559   0.13043
H    -2.08864   1.93963   1.14767
H     0.50630   2.08721   0.84846
H     3.34673  -0.56253  -1.08106
H     2.32678  -2.49679   0.15068
H    -0.62111   0.14830   1.92038
H    -0.66941  -2.28183  -0.90568
H    -0.10355  -0.87084  -1.85437
H    -1.73901  -1.53843  -2.10784
H    -3.00477  -0.37153   1.32344
H    -2.29499  -1.95817   0.93920
H    -3.53566  -1.26907  -0.13163
27

C    -2.47207   1.84394   0.11183
N    -1.62895   0.90337  -0.62635
O    -0.56594   1.42642  -1.14228
C     0.69910   1.07771   0.50129
C     1.91386   0.91717  -0.31843
O     2.47690   1.87422  -0.84856
C     2.46171  -0.45523  -0.45461
C     1.91490  -1.49003   0.20538
C     0.72484  -1.31982   1.08607
O     0.32718  -2.27257   1.76698
C     0.09464  -0.00527   1.11554
C    -1.62563  -0.41132  -0.36729
C    -0.96297  -1.32283  -1.35728
C    -2.68109  -1.01925   0.49892
H    -2.39571   2.81673  -0.38697
H    -3.51012   1.51514   0.13009
H    -2.08922   1.93994   1.14722
H     0.50465   2.08907   0.84610
H     3.34618  -0.56293  -1.08227
H     2.32628  -2.49732   0.14973
H    -0.62216   0.14831   1.92049
H    -0.66949  -2.28095  -0.90440
H    -0.10315  -0.87025  -1.85369
H    -1.73726  -1.54039  -2.10969
H    -3.00505  -0.37080   1.32259
H    -2.29370  -1.95700   0.93897
H    -3.53785  -1.27141  -0.12991
27

C    -2.47458   1.84364   0.11107
N    -1.62506   0.90128  -0.61972
O    -0.58224   1.42688  -1.16126
C     0.71459   1.07516   0.52126
C     1.91570   0.91692  -0.31489
O     2.47681   1.87379  -0.84919
C     2.46194  -0.45642  -0.45588
C     1.91538  -1.49109   0.20414
C     0.72727  -1.31914   1.08749
O     0.32597  -2.27316   1.76542
C     0.11267   0.00187   1.13095
C    -1.64091  -0.41112  -0.38156
C    -0.96272  -1.32268  -1.35909
C    -2.68476  -1.01895   0.49680
H    -2.39569   2.81604  -0.38811
H    -3.51068   1.51469   0.12976
H    -2.08981   1.94025   1.14678
H     0.50299   2.09092   0.84374
H     3.34564  -0.56333  -1.08348
H     2.32578  -2.49785   0.14878
H    -0.62321   0.14832   1.92061
H    -0.66957  -2.28006  -0.90311
H    -0.10275  -0.86967  -1.85300
H    -1.73550  -1.54235  -2.11154
H    -3.00534  -0.37006   1.32174
H    -2.29240  -1.95583   0.93874
H    -3.54005  -1.27375  -0.12819
27

C    -2.47710   1.84335   0.11032
N    -1.62118   0.89918  -0.61309
O    -0.59855   1.42735  -1.18024
C     0.73009   1.07261   0.54122
C     1.91754   0.91668  -0.31134
O     2.47673   1.87335  -0.84983
C     2.46217  -0.45761  -0.45715
C     1.91586  -1.49214   0.20290
C     0.72969  -1.31847   1.08891
O     0.32476  -2.27374   1.76386
C     0.13070   0.00900   1.14637
C    -1.65619  -0.41091  -0.39584
C    -0.96247  -1.32252  -1.36090
C    -2.68844  -1.01866   0.49468
H    -2.39567   2.81536  -0.38925
H    -3.51125   1.51424   0.12943
H    -2.09039   1.94056   1.14634
H     0.50134   2.09278   0.84138
H     3.34510  -0.56373  -1.08468
H     2.32528  -2.49837   0.14784
H    -0.62426   0.14834   1.92072
H    -0.66965  -2.27918  -0.90183
H    -0.10235  -0.86908  -1.85232
H    -1.73374  -1.54430  -2.11339
H    -3.00563  -0.36933   1.32089
H    -2.29111  -1.95466   0.93850
H    -3.54224  -1.27609  -0.12646
27

C    -2.47961   1.84305   0.10957
N    -1.61730   0.89709  -0.60646
O    -0.61485   1.42781  -1.19922
C     0.74558   1.07006   0.56119
C     1.91938   0.91643  -0.30779
O     2.47664   1.87292  -0.85046
C     2.46239  -0.45880  -0.45842
C     1.91634  -1.49320   0.20166
C     0.73211  -1.31779   1.09034
O     0.32356  -2.27433   1.76230
C     0.14873   0.01614   1.16179
C    -1.67146  -0.41070  -0.41012
C    -0.96221  -1.32236  -1.36270
C    -2.69212  -1.01837   0.49257
H    -2.39565   2.81467  -0.39040
H    -3.51181   1.51379   0.12909
H    -2.09098   1.94087   1.14590
H     0.49969   2.09463   0.83903
H     3.34456  -0.56413  -1.08589
H     2.32477  -2.49890   0.14689
H    -0.62531   0.14835   1.92084
H    -0.66973  -2.27829  -0.90054
H    -0.10194  -0.86849  -1.85163
H    -1.73199  -1.54626  -2.11524
H    -3.00592  -0.36860   1.32004
H    -2.28982  -1.95349   0.93827
H    -3.54443  -1.27843  -0.12474
27

C    -2.48213   1.84276   0.10882
N    -1.61341   0.89500  -0.59982
O    -0.63116   1.42828  -1.21821
C     0.76108   1.06751   0.58115
C     1.92121   0.91618  -0.30425
O     2.47656   1.87249  -0.85110
C     2.46262  -0.45999  -0.45969
C     1.91682  -1.49426   0.20042
C     0.73454  -1.31711   1.09176
O     0.32235  -2.27491   1.76074
C     0.16675   0.02327   1.17720
C    -1.68674  -0.41050  -0.42439
C    -0.96196  -1.32220  -1.36451
C    -2.69579  -1.01807   0.49045
H    -2.39564   2.81399  -0.39154
H    -3.51237   1.51335   0.12876
H    -2.09156   1.94118   1.14546
H     0.49804   2.09649   0.83667
H     3.34401  -0.56453  -1.08710
H     2.32427  -2.49943   0.14595
H    -0.62636   0.14836   1.92095
H    -0.66981  -2.27741  -0.89926
H    -0.10154  -0.86791  -1.85095
H    -1.73023  -1.54822  -2.11709
H    -3.00621  -0.36787   1.31919
H    -2.28852  -1.95231   0.93804
H    -3.54663  -1.28077  -0.12301
27

C    -2.48464   1.84246   0.10806
N    -1.60953   0.89291  -0.59319
O    -0.64746   1.42875  -1.23719
C     0.77657   1.06496   0.60111
C     1.92305   0.91594  -0.30070
O     2.47647   1.87206  -0.85173
C     2.46285  -0.46118  -0.46096
C     1.91730  -1.49532   0.19918
C     0.73696  -1.31644   1.09318
O     0.32114  -2.27550   1.75917
C     0.18478   0.03041   1.19262
C    -1.70202  -0.41029  -0.43867
C    -0.96171  -1.32204  -1.36632
C    -2.69947  -1.01778   0.48833
H    -2.39562   2.81330  -0.39268
H    -3.51294   1.51290   0.12843
H    -2.09215   1.94149   1.14502
H     0.49638   2.09834   0.83431
H     3.34347  -0.56493  -1.08831
H     2.32377  -2.49995   0.14500
H    -0.62741   0.14837   1.92106
H    -0.66989  -2.27653  -0.89797
H    -0.10114  -0.86732  -1.85027
H    -1.72848  -1.55018  -2.11894
H    -3.00649  -0.36714   1.31834
H    -2.28723  -1.95114   0.93781
H    -3.54882  -1.28312  -0.12129
