14

C 4.620683373 -0.044269197 1.450958949
N 2.632241036 1.652877924 0.637851939
C 0.709948751 0.759929324 -0.376294436
O 0.082921107 -1.744020927 -0.929778550
C -2.298815793 -0.797322317 -1.860491495
C -3.990939380 -0.051478143 0.313636862
C -1.618057585 1.929083621 -1.619688457
H 6.321045958 0.369354284 0.359130431
H 5.053550068 0.356983967 3.426360041
H 4.159250993 -2.046682128 1.242690835
H -3.068957159 -1.768856993 -3.486351343
H -3.589326394 -1.076761127 2.046243031
H -5.967902065 0.124447763 -0.200795571
H -3.418504733 2.059993793 0.674491140

