12

O 3.442513382 1.991294331 -1.759249380
C 1.903736384 -1.462409915 1.609391698
C 0.254783062 -0.182952625 0.222293964
O 0.811003254 1.559453701 -1.593649694
C -2.567217790 -0.388064387 0.477514913
O -3.660293112 1.756828451 1.624243906
H 3.799775724 1.326848106 -3.418412136
H 1.201873185 -2.798310017 2.984909606
H 3.917916526 -1.209315059 1.421078732
H -2.988373644 -2.119040762 1.530694809
H -3.434729959 -0.541278109 -1.387223457
H -2.807638366 2.055547476 3.196957437

