16

N 2.709910481 0.697971365 2.563867003
C 2.449112704 -1.742284363 1.878016890
O 3.581445253 -3.471063440 2.880893789
C 0.620482389 -2.277368422 -0.290197134
C -1.836067767 -0.727008027 -0.358901415
C -1.472877032 1.638939777 -1.924022953
O -0.042180690 3.519818790 -1.050971883
H 3.999710071 1.090802907 3.899575204
H 1.908316797 2.108847484 1.535488024
H 1.673190288 -2.044512476 -2.057584336
H 0.173316553 -4.279060102 -0.141043753
H -3.337779715 -1.860101077 -1.209916767
H -2.419187870 -0.211618901 1.550764003
H -1.364367239 1.246798854 -3.968246830
H -3.955286654 2.524320875 -1.995557194
H -2.695636604 3.681638513 -1.425693632

