12

O 5.596884085 -0.412985472 -0.407799213
C 3.543945925 0.039670510 -1.240428795
C 1.230068050 0.248811773 0.393638059
C -0.424096381 2.483222639 0.030911649
N -1.088344581 -0.621278493 -0.830379712
C -3.003654272 -1.656123094 0.726156781
O -5.106576142 -1.984917677 0.000959603
H 3.210433263 0.391192318 -3.277734820
H 1.499061985 -0.503716609 2.284463909
H -1.579041619 1.191526557 -1.960902943
H -1.569600396 2.814242865 1.725025627
H -2.339699149 -2.154916947 2.642236818

