8

O 2.699381456 2.378523648 -0.984720618
C -2.127887892 0.796692679 0.246349913
C -1.824467872 -1.523995466 -0.276728357
N 0.218122073 -0.393618424 1.289008570
C 2.442601086 0.382897876 0.058060248
H -3.084950554 2.578155808 0.358787276
H -2.301434614 -3.360696348 -0.994069490
H 4.000502339 -0.980765515 0.300141497

