8

O 1.985956705 2.466467571 -0.636593306
C -2.234727924 0.867020311 0.121881496
C -1.836108793 -1.468131892 -0.156717142
N 0.712720715 -1.464627849 0.712015866
C 2.396071399 0.282697359 0.007639520
H -2.520528194 2.822502688 0.520565539
H -2.816987938 -3.171577149 -0.698821212
H 4.335468162 -0.457160560 0.126862077

