14

C 3.707073603 0.118041875 -2.341645548
C 1.396216021 -0.871565707 -1.190125400
C -0.421243291 1.136606372 -0.589999103
C -2.322165212 0.601712590 1.465384287
C -2.836700427 -1.942172261 2.386448630
O -1.307788101 -0.239624283 3.795787325
H 3.649175740 2.027120080 -3.161510540
H 4.680695973 -1.216791250 -3.570842151
H 4.879929307 0.232717580 -0.613331741
H 0.397499563 3.036601949 -0.348113196
H -1.419816546 1.206167474 -2.431093164
H -3.797675729 2.021128665 1.672510006
H -4.666538258 -2.355411541 3.220313734
H -1.826129471 -3.509675930 1.537362273

