13

C 2.665511668 1.561118569 -0.078940531
C 1.594656861 -1.019418862 -0.647115584
C 0.301455177 -2.673820397 1.066012062
C -1.366915213 -1.436978491 -1.145759223
C -2.835656202 0.455449488 -0.328286057
N -4.071641551 2.232963940 0.356209425
H 2.813416639 2.737529508 -1.767536755
H 4.562956303 1.326776183 0.698839902
H 1.534922410 2.559541061 1.327807085
H 2.472104265 -1.924069138 -2.279152286
H -0.107967499 -1.742397539 2.874502432
H -5.224452476 2.113840349 1.882615388
H -2.023422131 -2.566046727 -2.720347325

