13

C 3.246429352 1.084881942 -0.190689637
C 1.263166622 -0.921756247 -0.544809100
C -0.835220567 -1.274909021 1.283424373
C -1.452968276 -0.329768396 -1.431475042
C -3.390385362 1.182770057 -0.448234892
N -5.042048382 1.068400279 1.075321212
H 4.024327704 1.696174536 -2.000322308
H 4.793773839 0.349555926 0.958072531
H 2.461396888 2.733801778 0.767635532
H 1.899511334 -2.551726930 -1.621906334
H -0.652806627 0.333900943 2.557076972
H -3.785028510 -0.992191990 1.959055263
H -2.216024530 -1.675104089 -2.770350555

