18

C -0.992913015 1.649733949 -1.743754986
C -1.217398608 -1.126075363 -1.066909210
C -3.715862379 -1.962043600 0.101457789
C 1.070513069 -1.470866685 0.631406726
C 3.180872428 -0.307285342 -0.800744762
O 3.553727090 3.642600400 -0.769559538
H -1.883827004 2.185131967 -3.527122014
H 1.734529022 3.119002984 -1.410589146
H -1.730902467 2.844683972 -0.218287669
H -0.896064646 -2.258346023 -2.775914646
H -4.083926736 -0.921385029 1.848400913
H -3.735586301 -3.981761056 0.542519659
H -5.280121068 -1.580202629 -1.188028560
H 0.775698578 -0.459151386 2.413201483
H 1.593662506 -3.419153665 1.156628701
H 3.206977219 -0.641167237 -2.817657316
H 5.020174140 -0.207390469 0.088873404
H 4.526626715 4.163740132 -2.220400228

