11

C 3.751806066 -0.549588387 -0.458898333
C 1.758846358 0.911636140 0.962359432
N -0.399447001 0.177444338 1.658970912
C -1.237713523 -2.362743244 1.104466364
H -1.466788845 -3.382755555 2.885097522
H 0.002919211 -3.465785397 -0.130788758
H -3.104443759 -2.258820836 0.233067179
H 2.241197326 2.858406577 1.448494274
H 5.504354798 0.526203745 -0.538019635
H 3.152024417 -0.927629421 -2.398939361
H 4.149868541 -2.365877166 0.433343038

