14

O 2.226444876 -0.428926370 -2.439339740
C 1.437421292 -0.547690895 0.116385586
C 1.207788085 2.109634007 1.184161462
C -1.147163422 3.476332034 1.312721496
C -2.197786197 -2.984746220 -1.662666271
C -0.985382022 -2.001220438 0.288048780
N -0.508910577 2.635459788 3.418278684
H 3.865231718 0.338875383 -2.505684131
H 2.863849593 -1.565265100 1.237874698
H 2.978474918 3.161879679 1.184584062
H -2.672757275 4.539890136 0.470217320
H -1.473714842 -2.791979926 -3.566312175
H -3.943160678 -4.021073633 -1.402239259
H -1.731315920 -2.206551125 2.187985000

