13

C 2.265891927 -0.530757852 0.948610975
C 1.281649939 1.856059047 -0.283814244
C 0.678246573 -1.556810201 -1.051353608
C -2.062219739 -0.691066551 -0.734825559
N -3.212634586 -1.348787184 1.570794552
C -1.340297457 1.979017404 -0.521247144
H 4.277607564 -0.836786091 0.683222033
H 1.717424733 -0.769313004 2.915431217
H 2.578173969 3.370219471 -0.750812907
H 1.429910707 -2.710200346 -2.570390640
H -3.223701011 -1.149061293 -2.377861960
H -1.887821640 -1.261373990 2.958329134
H -2.497359207 3.643815021 -0.777167972

