17

C -2.344125813 -1.837159878 1.155083661
C -0.296842961 -1.275894816 -0.747651641
C 0.191319728 1.349958153 -1.737292293
C -1.013726232 3.565055847 -0.375418170
C 2.829493710 0.625107021 -1.026965332
C 2.637785228 -1.193214630 0.861409412
C 3.438563363 -2.568294178 2.707672591
H -4.175224546 -1.798925427 0.192018549
H -2.071695166 -3.711075401 1.966476066
H -2.378152468 -0.466130901 2.686641489
H -0.149514734 -2.700913608 -2.215992197
H -0.055577034 1.492782311 -3.778514132
H -0.248156850 5.341065699 -1.088795300
H -3.058425262 3.589177105 -0.658320640
H -0.630434953 3.483174695 1.647683200
H 4.372558365 0.580017627 -2.388677600
H 2.842570426 -4.523490204 2.921371231

