10

N -3.651536121 -0.603161858 -0.327027443
C -1.101964915 -0.150978667 -0.142714441
N 0.636856091 -1.989480609 -0.592417197
C 2.785768339 -0.777897936 -0.326584982
N 2.362249270 1.636823397 0.250191273
N -0.154269701 2.088744086 0.387614198
H -4.747520430 0.637967288 0.604584747
H -4.131466463 -2.422488617 -0.063337724
H 4.649640856 -1.580272606 -0.531098362
H 3.598961899 3.036953343 0.568290062

