8

O 2.838563149 -0.129241166 -1.758998122
C 3.981043602 1.274355596 -0.381797167
C 2.840528067 2.625016084 1.796237650
C 0.408188515 2.388636441 2.352408842
H -0.796075986 1.190292566 1.207017076
H -0.436368508 3.366496031 3.938977184
H 4.084577180 3.814930137 2.910075393
H 6.019705298 1.632775906 -0.696459584

