14

O 3.531246228 0.646390137 -2.414315684
C 3.685257622 0.684352864 -0.067971748
C 1.616097164 0.770116157 1.553766513
C -0.875523228 -1.982046238 -0.293169598
C -3.108476227 -0.831792490 -1.074683354
C -0.918843574 1.376020329 0.421719672
H 5.561354758 0.628038156 0.852066417
H 1.759827088 0.524834279 3.574550927
H 0.643412798 -2.248561022 -1.645309401
H -0.856809856 -3.105647099 1.410176808
H -3.304168819 -0.179806855 -2.997203559
H -4.801430235 -0.963918531 0.058434603
H -0.669603306 2.581483843 -1.218420081
H -2.239344336 2.065211856 1.825900209

