12

O 4.078421416 -1.281298015 2.092631744
N 2.878902244 0.895267011 1.299336207
C 0.756111000 0.433526190 0.341450399
C -1.303888066 2.083510528 -0.675246142
N -2.887548913 0.086902249 -0.218908728
C -1.009125146 -1.709503454 -0.141312718
H 5.635107575 -0.664668929 2.788816222
H -0.373400415 0.713615160 -3.471046848
H -1.757348334 4.061463184 -0.490752029
H -4.713229762 -0.124783454 -0.720011694
H -0.217023367 -0.936159721 -3.253662468
H -1.174234410 -3.605510764 0.588457767

