15

C 0.935612399 1.600660370 1.670794267
C 3.335460038 -0.185261701 -2.472447723
C 0.987071966 -1.250949486 1.285528677
O -1.482063161 -2.067411630 1.791931928
C -2.980939461 -0.163127660 0.546449326
C -0.881080780 1.442695536 -0.594956516
C 0.783645972 -0.707124045 -1.777592838
H 0.168907160 2.254716086 3.467402284
H 2.715783693 2.494332017 1.192267499
H 3.982073994 -1.774231998 -3.663278671
H 2.367704701 -2.547745542 2.070357108
H -4.131137689 0.851589563 1.926945244
H -4.205310592 -1.071554176 -0.845182560
H -1.408864128 3.081254514 -1.714996888
H -0.278179440 -2.197453492 -2.745034915

