12

C -2.620036467 0.517570833 0.570469237
C -0.585578732 -1.341666393 -0.260726647
C 1.969706591 -0.048801006 -0.631412036
C 2.734158199 -0.055294577 -2.960727234
C 3.378370862 0.893994129 1.618904579
O 5.091575930 2.367293251 1.590679800
H -2.097313768 1.486219689 2.315930117
H -2.934349341 1.949759511 -0.877483611
H -4.399640994 -0.469814601 0.901711582
H -1.153390787 -2.293782754 -2.000994786
H -0.302680646 -2.829311276 1.147321252
H 2.680264079 0.061689221 3.413328905

