12

C -2.812199258 0.829280987 0.197440759
C -0.898208880 -1.317046191 -0.045002788
C 1.641493874 -0.441395746 -0.837185863
C 3.375200033 0.435136123 -2.225367336
C 3.689175818 0.433011315 1.388517844
O 2.714656755 1.423860522 3.157780618
H -2.185043094 2.205327754 1.593627810
H -3.056866503 1.797409488 -1.605142989
H -4.638537695 0.081811800 0.793298297
H -1.511008625 -2.681295227 -1.467969905
H -0.732932224 -2.336977339 1.739826869
H 5.641423909 -0.248265377 1.375342296

