13

C -2.006087560 1.721363905 0.372799916
C -1.713437864 -0.993096696 -0.355328340
C -0.208831253 1.002055510 -1.651948406
N 2.265307718 -0.004463779 -0.578161235
C 2.580152210 -0.644727670 2.209248577
C 0.836101557 -2.109578317 0.656683816
H -1.325170502 2.403860396 2.177627449
H -3.708523855 2.627182995 -0.308634323
H -3.231905465 -2.130173573 -1.103186849
H -0.215355287 1.703681416 -3.567989874
H 1.738452906 0.837350893 3.364401931
H 3.701226488 -0.350994688 -1.777007835
H 1.248615334 -4.037306267 0.086591881

