11

N 3.557530580 -0.203888542 -0.174792675
C 1.010513697 0.263037310 0.316326509
C -0.046776863 2.057122789 1.949870287
O -2.625169171 1.694414993 1.665541263
C -3.256751868 -0.099149999 0.044395411
C -1.105303796 -1.079662064 -1.046143728
H 4.643956428 1.161561755 0.598476509
H 4.129828694 -1.916219216 0.440995540
H -0.199675832 0.872687411 -1.919583476
H -5.234072033 -0.484356119 -0.258415550
H -0.950834843 -2.652475411 -2.333361952

