17

C -4.290027694 -0.153633884 0.270668837
C -1.619993421 -0.097857861 0.535732216
C 0.256057852 2.057771267 0.640596388
C 2.301280431 0.024010766 0.397843550
C 4.807525395 0.181503205 -0.715957702
O 4.458953053 -0.038391903 1.943839490
C 0.374219479 -2.133522621 0.300712874
H -5.258125336 -1.939272419 0.505161342
H -5.363755017 1.505348801 0.795884784
H -5.261855145 0.060783853 -2.644620689
H -3.116447016 0.047704908 -1.735791302
H 0.214210434 3.425075367 -0.918050608
H 0.346526525 3.101727354 2.423004531
H 5.618864038 -1.470058090 -1.628354533
H 5.524618747 1.995105133 -1.359964574
H 0.532387118 -3.444450408 1.892016869
H 0.402768308 -3.232207292 -1.457748320

