12

O 3.427526607 -0.601931855 0.978984033
C 1.139048541 -0.900363962 -0.292015353
C -1.074271810 -1.422151152 1.467338585
C -2.458931419 1.553555620 -1.507365025
C 0.255455748 1.511338156 -1.558741199
O 1.609587568 3.094730435 -2.517466215
H 4.394204440 0.631283308 0.046419497
H 1.259744479 -2.383349555 -1.740730120
H -1.429663493 -3.405903302 1.882391625
H -0.946307626 -0.318796533 3.195680209
H -3.294016209 2.924799780 -0.203418662
H -2.858505825 -0.846725163 0.381137294

