9

N 1.658821850 0.522625624 1.817718885
C -0.527348238 -0.390660909 2.098395145
C -2.046967174 -1.279895498 -0.128528022
O -4.527804185 -0.288366254 -0.081816486
H -4.437788744 1.495396917 -0.390251764
H -1.032579557 -0.808339855 -1.867823651
H -2.252859865 -3.333444966 -0.035936903
H -1.475973840 -0.569506894 3.933711897
H 2.425680478 1.023754649 3.509426241

