11

C 5.162192369 -0.313024081 -0.073215927
C 2.955262430 0.105650374 0.210508763
C 0.290215653 0.591253126 0.550464786
C -1.467429103 -1.001171307 -0.967961638
C -4.160855956 -0.794819658 -0.546815895
N -3.506397142 0.378765101 -2.467536608
N -0.591278127 2.255210779 2.036883180
H 7.126882398 -0.670743359 -0.323809655
H -0.654136333 -2.652400049 -1.869053409
H -5.820123725 -1.184807522 0.574922698
H 0.818153354 3.222567213 2.913678439

