8

C 0.105238432 -1.471248712 -0.819667724
O 2.473734135 -1.258075568 -1.541711837
C 3.418200203 1.162335390 -0.862504244
H 5.361473702 1.519180859 -1.380148833
N 1.876031147 2.557931770 0.245494415
C -0.420638938 1.028859726 0.400678214
H -2.011340337 1.957732417 -0.540487145
H -0.999867169 0.743509361 2.366336445

