11

C 2.948686183 -1.343482042 0.030239794
N 1.373104652 0.869170063 -0.142565739
C -0.990474796 0.749092803 -0.003601157
N -2.535275296 2.827689230 0.000541822
C -3.384501095 -3.460473963 0.448983620
N -2.366224498 -1.513947603 0.257827675
H 4.179896704 -1.414052919 -1.622832035
H 4.165103021 -1.176061057 1.688777996
H 1.906841317 -3.126079423 0.154635193
H -1.680666309 4.439837377 -0.529848157
H -4.326401388 2.587569082 -0.580378583

