11

C 3.105316378 -0.558463637 0.175364525
N 0.773093288 -1.706943537 -0.661819902
C -1.241176919 -0.464162373 -0.319248612
N -1.537516343 1.850593865 0.806584753
C -3.612053090 -1.602328771 -1.136191256
N -5.517104459 -2.420243868 -1.765529261
H 4.666844261 -1.837834963 -0.212747786
H 3.489658534 1.225197564 -0.814399035
H 3.081513274 -0.169119206 2.212210722
H -0.006674286 2.938378256 1.072661555
H -3.201900639 2.744926690 0.643114297

