11

C 2.921927566 -1.492207381 -0.102131099
N 1.338236314 0.670712500 -0.567012116
C -0.938716237 0.762497254 -0.081621788
N -2.532515105 2.764481803 -0.254704903
C -2.710302996 -2.071351009 0.213137315
N -2.297706770 -1.377822656 2.297669523
H 4.734668138 -1.213154075 -1.031920364
H 3.245500608 -1.738764937 1.921646660
H 2.052830862 -3.222255824 -0.829995568
H -1.872796219 4.226668843 -1.275690139
H -4.388758817 2.396110989 -0.380333820

