16

C 0.896235647 -0.754313058 -4.377452755
N 1.121752123 0.782475930 -2.150256618
C 2.895450708 -0.728963818 2.187337731
C 0.855646295 -0.707474759 0.497815636
C -1.514684823 0.880599014 0.738183565
O -1.741941907 1.908829347 -1.366391022
C -3.207440183 1.280047923 2.889728579
H 2.709728028 -1.739707438 -4.498678686
H 0.697608329 0.414524087 -6.062120427
H -0.622249434 -2.166673368 -4.281407312
H 3.951417893 -2.450449572 2.465468397
H 3.691238719 1.028275895 2.866267630
H 0.202537388 -2.624285346 0.028660002
H -4.706080135 2.627063810 2.487495593
H -3.983072545 -0.545253620 3.464178053
H -2.023893127 1.910482309 4.463131615

