11

O -3.730878502 3.010407510 -0.427893332
C -1.928377335 1.867050072 0.010153971
C -0.259042674 -0.561246902 -0.812970761
C -0.232376163 -1.462590157 1.859628759
O -0.995232862 -2.513353396 -2.030204736
C 2.276343643 0.585950441 -1.694230404
O 2.693867575 2.794199447 -1.936911754
H -0.789309708 1.636668005 2.199127770
H 1.378784923 -2.508967984 2.595723591
H -2.062042823 -1.991638658 2.622616453
H 3.670972748 -0.894943774 -2.200143064

