15

O 0.208103992 4.691963956 0.607114788
C -0.124593366 2.370451834 0.146923031
C -2.437169484 0.943501911 -0.580778790
C -1.847116164 -1.702830510 0.511136769
C 1.005245235 -1.743846184 0.991699792
C 2.673445947 -1.132586433 -1.144641677
C 2.076267113 0.973561067 0.741930457
H -2.570106501 0.946773311 -2.644713285
H -4.171230761 1.783338153 0.142193708
H -2.844962612 -1.934071194 2.301310402
H -2.461809868 -3.230265693 -0.734921142
H 1.701462821 -2.951982923 2.489279192
H 1.883213429 -1.052815557 -3.038029505
H 4.608468486 -1.792723213 -1.081755276
H 2.244362069 3.879039210 1.282357282

