16

C 0.060040889 -2.407761906 -0.588139991
C -2.011993219 -2.099932512 1.000883237
C -1.468956210 2.399065556 1.521023777
C -0.205966523 2.886837034 -0.689539350
C 1.693551256 1.251632471 -1.553173555
C 2.508978869 -0.991671805 0.033313245
H -0.169655378 -0.620124796 -2.352183039
H 0.188565471 -3.963245821 -1.921064851
H -1.783354443 -1.925158962 3.017129644
H -3.853672452 -2.739978291 0.371453600
H -0.469819287 1.674964269 3.142536707
H -3.207266498 3.392918880 1.951637615
H -1.027311567 4.166519806 -2.067194576
H 2.793632208 1.723121860 -3.218083328
H 2.802979001 -0.623641992 2.039586943
H 4.186744108 -1.906034442 -0.726093985

