17

C -4.198849202 0.471138751 -0.362431915
C -1.460839118 0.090366684 0.272339090
C -0.497283395 1.677531783 2.414471908
C -0.034025672 -1.509809481 -1.037481733
C 2.723299984 -1.998647217 -0.626061446
C 4.503066933 -0.007641372 -1.643955923
O 3.891914991 2.002651981 -2.486938917
H -4.566651209 2.450033039 -0.832388056
H -5.400401512 0.006188532 1.254287536
H -4.781586542 -0.691441227 -1.959597444
H -0.512337331 3.671193279 1.871944331
H 1.427334671 1.205458638 2.969672139
H -1.716444097 1.488179846 4.071828993
H -0.899117120 -2.517746537 -2.601093077
H 3.297938241 -3.796915907 -1.472332357
H 3.197306337 -2.193489413 1.383428434
H 6.533152408 -0.534623684 -1.526623281

