17

C -4.397456961 0.008712280 0.127716044
C -1.652685078 0.831478191 -0.064216692
C -0.455541121 1.865430332 2.119272366
C 0.062531283 -0.784677026 -1.584334307
C 2.403764776 -1.899311779 -0.564683369
C 4.818127023 -0.356707689 -0.627329018
O 4.975023330 1.806467645 -1.279738651
H -5.530084459 1.491694131 1.011458901
H -4.529578165 -1.698243691 1.276969333
H -5.180878793 -0.419204844 -1.730932363
H -1.445940442 2.441551419 -1.436640589
H 1.307618291 2.873360490 1.910844910
H -1.217281162 1.623656711 4.006271843
H -0.084643592 -0.644821287 -3.629530052
H 2.854998437 -3.658601675 -1.575736696
H 2.119904480 -2.346043678 1.458175436
H 6.522681493 -1.403318746 0.011234856

