14

O 0.579765273 1.282863332 2.856291425
C 0.256201490 0.090789775 0.530353357
C 1.196531270 1.641113113 -1.762739175
C -1.288453010 2.790710767 -2.175072899
C -2.103722585 -1.527460165 0.402379781
C 0.442624730 -2.745370662 0.484348371
H 2.354981251 1.333333230 3.230036658
H 2.745169614 2.839862090 -1.099077583
H 1.845000200 0.410743425 -3.283189231
H -1.518779160 4.207283636 -0.656575629
H -3.214540640 -1.539253209 2.116988991
H -3.163727832 -1.588558790 -1.337862394
H 1.023175051 -3.598743258 2.249876498
H 1.160358945 -3.641054755 -1.206805125

