14

O 0.800991655 1.313457544 2.776437533
C 0.576248625 0.160482875 0.426623058
C 1.393494740 1.675361810 -1.805473611
C -1.389623825 2.068907234 -1.878497599
C -2.174298205 -1.312983714 0.234368653
C 0.290239351 -2.643691624 0.477159928
H 2.534893174 1.178897479 3.297103057
H 2.598712174 3.226509333 -1.193812955
H 2.220398452 0.624099835 -3.369669051
H -1.838371834 3.500836906 -0.443081949
H -3.205422541 -0.970102755 1.965719854
H -3.311280255 -1.680142968 -1.404601322
H 0.740546573 -3.494723019 2.281283935
H 0.950700294 -3.678142274 -1.159661862

