11

N 3.332297903 -1.833372677 -1.077233842
C 1.814701238 -0.076282253 -1.305253374
O 2.141357577 2.482104544 -2.122334554
C -0.225802827 3.211351198 -1.532049705
C -0.881566667 0.536848477 -0.788241862
C -3.144264503 -0.996030345 -1.419779848
H -2.790957376 -2.900800712 -2.088605985
H -4.770785434 -0.039534204 -2.211111979
N -2.558232124 -0.352328343 1.169018142
H -1.741342165 -1.818110021 2.095682802
H 5.119298458 -1.382675434 -1.618539938

