11

C -3.143502112 -0.994541562 0.085041587
N -0.664630416 -0.078598906 -0.659955498
C 1.696719873 3.229060653 0.212796144
N 3.758824660 2.464638864 0.338856429
C 3.370035072 -1.541981766 0.048043981
N 1.148956224 -1.588393061 -0.397457762
H -3.740519979 -2.592623155 -1.080565202
H -3.204407871 -1.563678807 2.074086671
H -4.482791494 0.541020634 -0.203039072
H 0.185170502 4.564686158 0.161438018
H 5.076141762 -2.439590979 -0.579243406

