12

C -2.756413315 -0.977246883 -1.544884290
C -0.493160636 -0.174146596 -0.062241229
C 0.510204171 2.213463441 0.248821807
O 2.839671397 2.101344440 1.030027898
C 3.574758211 -0.599175670 1.186534354
O 5.666155152 -1.107501888 1.829566599
N 1.536327667 -1.987022227 0.519371402
H -2.213331991 -1.369933162 -3.494440920
H -3.573900862 -2.695041208 -0.760337240
H -4.190722076 0.501481913 -1.539755593
H -0.345494791 4.048183587 -0.027027657
H -0.384455993 -0.977072650 2.047942159

