8

N 0.082049981 3.423437504 -0.689928615
C 1.197183603 -0.870887239 -0.167972275
N 0.408756265 -3.162208265 0.247543956
N -0.286810990 -5.132859927 0.606360163
C -0.616635398 1.165102403 -0.283433748
H -1.426281148 4.609107308 -0.708026389
H 3.205395197 -0.618398796 -0.412497336
H -2.590850667 0.603474570 0.007623722

