8

N -0.488993979 2.701711734 0.832167374
C 1.609391755 -1.576741256 -1.288604207
N 0.871267130 -3.311709979 0.324228683
N -0.621746313 -1.746584397 1.464540260
C -1.085165589 0.544569861 -0.042626496
H -1.378877614 4.101348953 -0.133426948
H 3.518177052 -0.825338131 -1.015349110
H -2.451247471 0.129510755 -1.541258208

