14

O -2.501098919 -0.372932084 2.790455654
C -1.666817414 0.417282047 -0.496604605
C -0.146310382 2.506413528 0.211150211
O 2.526867262 2.205339489 0.022125046
C 3.405212891 -0.145529623 -0.211369117
N 2.227134097 -2.135037879 -0.814168186
C -0.398199347 -1.883423151 -1.559758268
H -1.548911089 -1.800001550 3.418476368
H -3.603029478 0.774518425 -1.054832424
H -0.684912771 4.407842726 -0.304556237
H -1.179684531 1.480732718 2.540142777
H 5.416627834 -0.225697815 0.198611331
H -0.500422986 -1.704175107 -3.625548872
H -1.420003289 -3.609292238 -1.087624010

