15

C -3.998167431 0.263415217 -1.099306297
N -2.810560148 -1.167718275 0.938151511
C -0.335869282 -1.830388592 0.766834118
C 1.541561717 0.062275622 0.147585059
C 4.053272091 -0.177196652 -1.085188909
C 0.542367725 1.566201800 1.970951882
N -1.765587748 0.705185186 2.894739075
H -2.741045136 1.682671176 -1.923305518
H -5.657402545 1.171531950 -0.296049446
H -4.603091799 -1.062986441 -2.558527166
H 0.185678706 -3.667464528 1.561010231
H 3.931428125 -0.140910641 -3.146849667
H 4.994758798 -1.944047077 -0.558921216
H 5.282833996 1.375300570 -0.512975454
H 1.363119660 3.193944892 2.913399894

