16

C 2.798801667 -0.527579409 2.127831295
C 1.950175326 -0.076611878 -0.547972672
C 0.111374770 -1.941893866 -1.817361746
C -0.591122054 0.743844088 -1.409061094
C -2.888605213 1.078175852 1.403135083
O -1.252356500 2.481570224 -3.028865977
H 4.462390502 -1.747597083 2.157134862
H 3.302380949 1.244934242 3.058804039
H 1.337618014 -1.453350776 3.250266535
H 3.387150227 0.714303436 -1.783138882
H 0.402953653 -2.481306513 -3.770222808
H -0.621849133 -3.415795886 -0.603023738
H -3.614563440 -0.822530187 1.617272158
H -4.519030715 2.372233657 1.281117886
H -1.694278403 1.706470954 2.941988483
H -2.592051550 2.126949152 -0.800953501

