13

N 2.180011906 -1.079146131 2.575434187
C 3.333594803 0.184308183 1.028117158
C 2.195879766 0.903701653 -1.350746187
C -0.211445632 -0.672319088 -1.940827078
C -1.380192164 -1.337613706 0.434317475
C -1.820686681 1.459954254 0.885603840
N -0.310082420 2.102708331 -1.431643265
H 3.366094615 1.516033577 -2.910781735
H -0.346359114 -1.515949220 -3.800122981
H -2.720556385 -2.849798496 0.754882546
H 1.457727022 -2.777330259 3.029246058
H -3.748962123 2.068852300 0.484332686
H -1.175659112 2.330775881 2.640290211

