14

O 1.140161986 0.859772626 -2.347984955
C 0.652469292 1.034119344 0.467057774
C 3.121659845 -0.442310260 0.877545424
C 1.492038345 -1.636539976 -1.326471899
C -0.912595781 -1.329925752 0.339356999
C -3.089172882 0.622209844 -0.070274134
N -1.412748744 2.632102141 1.099120801
H 3.275853484 -1.475174259 2.652778731
H 4.884541202 0.416265715 0.256930943
H 2.059445527 -3.133905553 -2.619873346
H -1.065821654 -2.468032642 2.042264591
H -4.773400664 0.252120702 1.051885150
H -3.577603629 1.002032418 -2.030563595
H -1.410663904 4.358943209 0.272029704

