13

C -1.751616303 -0.790702947 2.369625740
C 0.336747816 -1.302564520 0.585676053
N -1.781729618 0.831881440 -2.698689192
C 0.602680205 0.203038203 -1.857756418
C 2.422518569 2.019905313 -0.488316342
O 2.832747743 1.047721706 1.593522874
H -2.513256491 1.100832610 2.128895192
H -1.104199875 -1.118046994 4.302055121
H -3.268047101 -2.138364288 1.989463262
H 1.135930417 -3.200606196 0.685264997
H -1.898767878 0.535079297 -4.587564165
H 1.863629177 -0.834577172 -3.171985972
H 3.297631992 3.826279058 -0.996200855

