16

C -2.683330500 0.529328312 1.327895468
C -2.653792134 -0.190886829 -1.452875717
C -0.386542364 -0.555820062 0.148948969
C 0.792973188 -2.872939421 0.758958118
C 2.982468703 0.300878282 -0.075389528
C 1.690641285 2.585564291 -0.631074020
H -3.644853123 -0.710018558 2.643727907
H -2.777471723 2.522255763 1.751698431
H -2.727756109 1.346614207 -2.791179211
H -3.594889615 -1.916465995 -2.025738784
H 1.247225459 -4.221610783 -0.704989845
H 1.231051520 -3.332894338 2.699427962
H 3.912211783 -0.678315889 -1.608000689
H 3.949946307 0.150210116 1.716809343
H 1.306602941 3.101079933 -2.563731170
H 1.335611786 3.948206379 0.840412268

