11

O -1.377544960 2.453832484 -3.344528267
C -1.657372884 1.310189943 -1.420403042
O -3.882798687 0.906749724 -0.068345460
C -2.591640913 -0.576766674 1.861392195
C -0.231622352 -0.111003627 0.392612410
C 3.953604684 -0.245869866 -0.873767087
O 2.115962662 -0.779109534 0.613130164
H -3.322323777 -2.505001562 1.909267140
H -2.760430513 0.322959618 3.709114753
H 5.757676062 -1.001237599 -0.309813890
H 3.607556695 0.889817060 -2.538635475

