11

O -0.705183202 3.112586325 -2.918642995
C -1.261074676 1.619963506 -1.334204451
O -3.628159736 1.152182837 -0.292405033
C -2.600069035 -0.581255889 1.575484096
C -0.093200045 -0.244766153 0.300818926
C 3.629596401 -0.655101624 -0.716497200
O 2.249417880 -0.133772012 1.284023132
H -3.511995645 -2.424977406 1.460206589
H -2.754763414 0.202121724 3.479695425
H 5.323379337 0.460059570 -0.985701745
H 3.094178219 -2.216973607 -1.908523703

