12

C -3.204424917 -0.786281195 0.181691347
C -0.411549431 -0.721732195 0.075585266
C 1.333654011 1.102937084 0.152667988
O 1.285948178 3.637326987 0.356857601
N 3.645078209 -0.102019284 -0.034973218
C 3.410917407 -2.628990953 -0.227379217
O 0.890610953 -2.975722608 -0.155032583
H -3.991917067 -1.653572210 -1.516224288
H -3.864942741 -1.860834631 1.814221210
H -3.972919481 1.122288484 0.327804045
H -0.429560241 4.210229813 0.483191197
H 5.321832445 0.787466715 -0.030961254

