15

C -2.258626875 -1.565320979 -0.848141682
C 0.294103973 -0.485506565 -0.203363897
C 2.549299388 -2.143895006 -0.756719321
O 4.824512464 -1.004265167 -0.098863006
C -1.221536390 3.421332330 1.364195878
N 0.758855978 1.652487091 0.747662204
H -3.443070039 -1.717654127 0.833532059
H -3.248908767 -0.371801612 -2.207483176
H -2.066483094 -3.445005987 -1.668419448
H 2.300866486 -3.935133292 0.268770304
H 2.519371966 -2.614982262 -2.781420438
H 4.345833688 0.635212067 0.574117032
H -1.118620904 3.859235296 3.378001741
H -3.138218097 2.777275324 0.930078336
H -0.879222273 5.184418609 0.348516879

