15

C -2.497014559 -1.912853519 0.114407232
C -0.150591349 -0.283375109 0.420628015
C 2.040689938 -1.055488442 -1.330949549
O 4.197812158 0.388375719 -0.842581050
C -0.644430057 2.635311199 0.405849072
N 0.496586237 0.638891780 2.743632662
H -4.000130025 -1.246564981 1.353952391
H -3.170157133 -1.923368257 -1.837507020
H -2.051683704 -3.857115306 0.640586958
H 2.394692806 -3.078963732 -1.020275645
H 1.518158291 -0.811855728 -3.315368583
H 4.093243181 0.784543649 0.946390244
H -2.654117526 2.995561160 0.231389084
H 0.641626988 3.542594014 -0.909642177
H -0.093861808 3.381602520 2.346865179

