13

C 3.241684892 0.176814700 0.939548037
C 1.333353564 0.299647541 -1.097335558
C -2.056115357 -1.951973873 -0.272513398
N -2.893278241 0.589603546 -0.496672806
C -0.785613215 2.062709330 -0.812721733
O -0.636494454 4.345296817 -0.921792549
H 4.185276755 2.016431052 0.745617313
H 2.509226083 0.110626268 2.876114029
H 4.668441061 -1.277423718 0.648024637
H -0.056758510 -1.931196164 -1.417135290
H -1.730819716 -2.616062845 1.649775278
H -3.121724870 -3.323250385 -1.384122946
H -4.671284796 1.151347786 -0.852862162

