11

N 3.071854487 -2.418044511 -0.869786379
C 1.613775031 -0.436171277 -0.825624783
C -0.280506845 -1.877665949 0.602068444
O -3.131162710 0.403021191 -0.008829027
C -2.310921417 2.564375396 0.153721038
O 1.654172368 1.848629532 -1.266107622
H 4.963053994 -2.099356467 -0.795443703
H -1.167311039 -3.521575951 -0.209557305
H -0.250790108 -1.711317384 2.643627071
H -2.901384561 4.001437111 -1.213260713
H -1.231947628 3.213915537 1.794338721

