12

C 1.066317404 2.923952880 -0.739444485
C 2.733865367 1.081632633 -1.107864394
C 2.417768081 -1.454052469 -0.951387776
N 0.596251243 -2.288833334 0.705620447
C -1.812383659 -0.944670991 0.095560616
C -1.372655842 1.785140064 -0.151788736
C -2.871463677 1.117862878 1.689718872
H 1.515516548 4.834373471 -0.160790919
H 3.429671635 -2.789587986 -2.139125564
H 0.472248643 -4.165776028 0.979841496
H -2.964955723 -1.982316204 -1.259397034
H -3.695471138 1.584291751 3.488610133

