10

O -1.928685814 -2.724723401 1.050048582
C -0.473653163 -1.503685407 -0.584202898
C -0.092597034 2.390593139 -0.157645337
O 2.407445698 1.624471523 -0.296089262
C 2.135832225 -0.934237794 0.145652417
O 3.781530967 -2.307946875 0.826857244
H -3.291857801 -3.529744406 0.158133888
H -1.266696082 0.565478055 -1.448710308
H -0.821419179 2.662426198 1.744350061
H -0.518668802 3.931992869 -1.453555698

