17

C -1.130207287 -3.057329712 -1.393708090
C -0.297245529 -0.443166193 -0.760632793
C -0.186516857 1.547253308 -2.277541181
H -0.659914340 1.695454399 -4.260550310
O 0.686074386 3.719976729 -1.207692918
C 0.848708147 3.228340875 1.455906309
H 2.591085409 4.076296873 2.158819307
H -0.763599739 4.147858269 2.366313485
C 0.752501850 0.341767382 1.787236035
C 3.327308459 -0.847332785 2.332412705
H 4.088105299 -0.174147824 4.129611754
H 3.196717423 -2.903697435 2.438815020
H 4.672536286 -0.370104203 0.840695481
H -0.551978400 -0.150619997 3.314435947
H -2.711512326 -3.650307591 -0.201568601
H -1.735307835 -3.191045845 -3.359615216
H 0.389321452 -4.429054108 -1.109349643

