16

C 5.017294746 0.698642331 -1.420907693
O 2.415106572 0.966201736 -1.856697699
C 0.967534352 -1.029528934 -0.854001307
C -1.795741389 -0.366047774 -1.223384826
C -3.534141761 -2.354918058 -0.129455272
H -5.497650806 -1.795269789 -0.400087033
H -3.200587582 -2.568748430 1.895509556
H -3.245179053 -4.178628301 -1.049456399
O -2.344071295 1.957713104 -0.021524396
H -1.043294588 3.125717710 -0.517128165
H -2.135706502 -0.190830043 -3.266048205
H 1.423101533 -2.814485581 -1.814949643
H 1.363486229 -1.256229815 1.174412876
H 5.757326331 -1.028521559 -2.298410202
H 5.956270348 2.328200033 -2.256714207
H 5.440426592 0.639130754 0.608572919

