11

C -3.351592951 0.222352905 0.086060943
C -0.643677530 -0.662674871 0.217982044
C 1.331843124 1.120646388 -0.399894186
C 3.535472204 -0.168033993 -0.111960396
N 4.518329249 -2.186092723 0.450387574
O -0.143290335 -2.836314431 0.843935247
H -4.178321674 0.091045587 1.969420127
H -3.518074478 2.155051345 -0.599322124
H -4.405785532 -1.044440820 -1.149472554
H 1.114726802 3.054642919 -0.974260568
H 5.722422503 0.195914597 -0.312453875

