15

C 3.231655247 1.275499939 -1.311279370
C 4.026624061 1.996041134 -3.499220000
C 0.790673051 0.312981732 -0.321785664
C 0.311622830 -2.270610270 0.969277455
C -2.266642904 -0.893634552 0.946891948
C -0.842804075 1.514620383 1.790083890
C -1.683777989 -0.118804681 -1.810168617
H 4.858403852 1.498609754 -0.033012041
H 1.196483592 -2.550663544 2.810848709
H 0.491437924 -3.933334197 -0.234909152
H -4.047892702 -1.599827322 1.688095956
H -1.720427451 3.323532124 1.337304017
H -0.037603774 1.500468564 3.688482893
H -1.649934241 -1.629105661 -3.212435617
H -2.624310649 1.571582870 -2.521502934

