15

C 5.134742661 1.986981976 -1.377392648
C 3.086134921 1.195957927 -0.823991568
C 0.620426642 0.242125223 -0.162071189
C -0.027785664 -2.397497027 0.938921915
C -2.582008828 -1.000036848 0.690026106
C -1.252910965 1.353377347 1.800967484
C -1.685196493 -0.102195860 -1.941431639
H 6.953651771 2.687489107 -1.872902687
H 0.649124136 -2.771650932 2.849453678
H 0.284935059 -3.999963332 -0.318961808
H -4.440978129 -1.720873766 1.186258208
H -2.064192727 3.190119747 1.335879617
H -0.662619956 1.247531444 3.773060080
H -1.487211663 -1.542073398 -3.402919594
H -2.526110767 1.630708376 -2.674895896

