15

C 3.790235461 1.708471210 -0.890952993
C 3.599964758 -0.158792307 -2.323169563
C 0.908157929 -0.027285037 -0.563295119
C 0.094204586 -2.434376034 0.866780486
C -2.263471603 -0.707500138 0.826158858
C -0.509256662 1.492206682 1.566355075
C -1.648474107 -0.091311888 -1.964560923
H 4.144262763 3.337474788 0.253201153
H 0.974895705 -2.756478699 2.701376648
H 0.032512436 -4.144390414 -0.277975878
H -4.113178582 -1.125595165 1.617430234
H -1.122190918 3.394254633 1.059328366
H 0.344471618 1.420806801 3.441699949
H -1.851698070 -1.615441165 -3.333496480
H -2.346928561 1.705314895 -2.692215879

