11

C 1.031514110 -0.050342814 -2.062932960
C 0.665420303 -2.107759645 -3.412767014
H 1.689130525 -3.821356472 -2.961851527
H -0.642835487 -2.149056151 -4.985998103
C 0.100391209 2.641254501 -1.962995115
H -1.877176000 2.910262533 -1.449197725
H 0.617665960 3.851444522 -3.548729407
O 1.754253718 3.074765648 0.193997867
C 2.632373204 0.620040061 0.135255258
N 4.205970560 -0.489592682 1.497144442
H 4.917614679 0.667725674 2.856174092

