14

C -3.532207229 -1.413112781 -2.606797631
C -2.388298162 -0.362470144 -0.241828668
C 0.051235559 0.062363834 0.073165169
C 1.774882404 1.075402433 2.099198505
C 3.839076585 0.589932113 0.120346585
O 1.978312215 -0.357797135 -1.639324185
H -2.086761688 -1.784836328 -4.026079177
H -4.532442272 -3.182308186 -2.236233412
H -3.614575157 0.097661292 1.333717922
H -4.903691706 -0.099873254 -3.421080222
H 1.890506959 -0.068288976 3.805393616
H 1.471587616 3.047060941 2.602608713
H 4.782778335 2.262022694 -0.630246717
H 5.226786685 -0.860727542 0.587977267

