11

N -3.747886207 -0.812891922 0.265829210
C -1.548131407 0.222382781 0.219977443
C -0.237317722 2.425797622 0.497502017
O 2.448006194 2.090626008 0.137130527
C 2.998839873 -0.229496051 -0.368464412
O 4.967381655 -1.221524787 -0.776091641
N 0.542588521 -1.670017816 -0.372873124
H 0.217706484 -2.494326046 -2.082770757
H -5.122242727 0.456125141 0.660055711
H -0.799069917 4.321267191 0.931604460
H 0.550985367 -3.072831873 0.946264445

