10

O 3.258404452 -0.801617721 -0.859422988
C 0.815179851 -0.508199228 0.044910589
C 0.175104234 2.202268042 0.142204593
N -2.134753815 2.908061191 -0.189133485
N -4.166170887 3.478407615 -0.476402923
C -1.010771815 -2.513478023 -0.047589634
N -0.004549686 -2.272953002 2.096029604
H 3.900246151 -2.394460010 -0.270582797
H 1.558309415 3.649998262 0.513823828
H -2.377282230 -3.742197319 -0.953383289

