10

O 3.408665118 -0.778811637 -0.499271481
C 1.021362029 -0.226157585 0.178905437
C 0.475301685 2.444474163 0.141773584
N -1.959297885 2.858108057 0.258651350
N -3.682411657 1.522612148 -0.021458143
C -1.692218318 -1.868032560 -0.433347837
N -0.250284663 -2.163207951 1.479898707
H 3.853160393 -2.379838935 0.248446923
H 1.851062763 3.890357138 -0.225035314
H -3.011625703 -3.293676814 -1.128115323

