15

O -2.325848779 3.093213646 0.038367979
C -3.050149547 0.660440327 -0.809299704
C -1.609528098 -1.248446241 0.772192475
C 1.197542991 -1.029012907 0.291693967
O 2.105541012 -1.412276029 -1.768008865
C 2.869987631 -0.270935099 2.467859694
O 5.402628951 -0.159887384 1.773888691
H -2.906420077 4.336395092 -1.141543187
H -2.570860086 0.386792091 -2.803733531
H -5.087167842 0.368080968 -0.572538677
H -2.193598602 -3.158194033 0.248995095
H -2.034437439 -0.956726650 2.770900031
H 2.175653063 1.566044253 3.146972896
H 2.578688843 -1.631208775 4.010410551
H 5.447967978 -0.544279259 -0.012687205

