15

O -1.711417993 3.030262560 0.056779448
C -2.889810783 0.729739172 -0.652356929
C -1.583546896 -1.376445121 0.795178536
C 1.156503658 -1.573145485 -0.017769397
O 1.781053550 -2.355745758 -2.044207324
C 3.188383126 -0.722022268 1.916630949
O 5.548941809 -0.458856476 1.257611243
H -2.230351092 4.348522201 -1.070020568
H -2.684266595 0.383150759 -2.682014363
H -4.905847071 0.760766888 -0.183999420
H -2.502556616 -3.173674859 0.371996991
H -1.743885755 -1.018545241 2.823899554
H 2.078334511 1.639795804 2.348569240
H 2.722683291 -1.483721679 3.816462441
H 3.847057655 1.569871931 1.914761065

