12

O 4.872454060 3.016396657 1.177372659
C 3.571159644 1.766842828 -0.079872298
N 2.319112454 0.637920479 -1.601418433
C 0.657860095 -1.503020110 -1.505647850
C -1.460844201 -1.228858871 0.389464239
O -0.824502078 -0.193776712 2.762613279
C -2.490415220 1.199594270 1.174107817
H -1.710389906 2.930595797 0.398876285
H 1.740792651 -3.205453268 -1.054614765
H -0.160547201 -1.775644606 -3.378941294
H -2.685705451 -2.880282198 0.476059900
H -4.430538961 1.307644596 1.831647905

