10

C -1.572976827 -0.831932141 -1.223033941
C -2.198767967 -2.450863724 1.023326721
H -3.959549460 -3.483129436 0.712616137
H -0.716436427 -3.849646296 1.352201352
H -2.404480661 -1.310453182 2.724634263
C -1.344338901 1.614795181 -1.158786485
C -1.119615882 4.061562225 -1.083628732
H 0.687623054 4.948312316 -0.703353456
H -2.731706204 5.284067156 -1.405560150
H -1.298862037 -1.773396096 -3.028250285

