10

O 2.943300973 -1.023047589 0.972855027
C 1.770819606 -0.105416123 -0.932825960
C 0.808056396 2.481470107 -0.551664648
N -1.046113133 2.206106623 0.978709097
N -1.798598977 -0.191487195 1.709799839
C -1.863474333 -1.731134072 -0.435685485
N 0.053102136 -1.688730413 -1.955533248
H 0.902456134 -1.115453912 2.087731496
H 1.451020914 4.301806111 -1.207735021
H -3.412044326 -3.046543628 -0.699737994

