12

C 3.149692174 2.203868054 -0.618819657
C 0.487841492 1.087030598 -0.641971617
C 0.183063533 -1.018151347 1.226229336
C -0.446201244 -3.371834885 0.656876757
H -0.628296047 -4.815072149 2.097210664
H -0.814912360 -3.938750965 -1.279725498
H 0.542602334 -0.533007798 3.193443661
H -0.876515675 2.579954525 -0.201076611
H 0.021554745 0.400315500 -2.533828427
H 4.549580670 0.775400757 -1.124391674
H 3.314934211 3.765792742 -1.955429502
H 3.638580933 2.922967539 1.253793165

