16

C -2.358644107 -0.076804177 2.246093946
C -1.596007354 0.878618165 -0.327209442
C -0.143993408 3.209997946 -0.182290446
C 1.150848142 0.678058527 -1.097649385
C 2.037011190 -1.668983115 -0.213055093
O 3.965112455 -2.933716982 -1.269211780
H -2.652204122 -2.119827209 2.236057705
H -0.968504613 0.387961473 3.716921420
H -4.136822684 0.820729561 2.782144922
H -2.114893077 -1.307094704 -1.756583902
H -0.007976912 4.508812437 -1.758252058
H 0.200492383 4.078528394 1.648989548
H 1.405412487 0.858819315 -3.129008290
H 1.648992969 -2.348654240 1.672257066
H -1.059016920 -2.951462549 -1.669665458
H 4.334950283 -2.246820111 -2.909370998

