11

C -3.703481064 -0.713490362 -1.557779007
N -2.374297200 0.689599594 0.325215876
C -0.443809966 1.167326554 1.257930153
O 2.564939782 -0.792189046 -0.420323902
C 4.351987959 0.039598550 0.906342431
O 4.117593190 1.604199808 2.667519388
H -4.726934944 0.594483594 -2.770514375
H -5.055888755 -1.954109188 -0.629286056
H -2.349814683 -1.812689795 -2.653865078
H 1.348403154 1.845253593 2.395187820
H 6.271300637 -0.667985209 0.479572787

