13

C 3.822262539 -0.395894845 -0.153511675
C 1.027070949 -0.228619274 -0.302202186
N -0.480843080 -0.993160815 -2.163779687
C -3.070932698 -0.590085955 -1.775180961
C -2.975906289 0.517173764 0.552840455
O -4.834300887 1.402843480 2.075199248
N -0.529758225 0.736373963 1.440998940
H 4.555262283 -1.272130103 -1.866387648
H 4.429311376 -1.541552968 1.451939377
H 4.687037327 1.469975415 0.018326923
H 0.195772225 -1.804765833 -3.742906250
H -6.384249473 1.112232949 1.171856114
H 0.001163788 1.489026991 3.102612086

