14

C 2.252211179 0.638187705 -1.292543908
C 0.461448178 1.695029475 1.442863571
C -2.122278637 0.803340320 0.380194226
C -1.461349155 -1.912276585 -0.427720460
C 1.344529291 -1.712363952 -0.443819660
O 1.408544217 0.308271590 3.224637030
H 1.302894845 1.508363273 -2.891106417
H 4.259798275 1.006779977 -1.148966013
H 0.571909095 3.774783378 1.656448335
H -3.549341452 0.876226546 1.866700700
H -2.761640297 1.976337432 -1.191859337
H -2.102933057 -3.353539539 0.887530831
H -2.171318599 -2.385900685 -2.311811497
H 2.546593622 -3.234237123 0.212190959

