15

C 4.766540467 -1.408660699 0.747349700
O 2.097396538 -1.354350330 0.792675046
C 0.965448000 -1.245300320 -1.492758198
C -1.510384827 -0.961972926 -1.771806270
C -3.344091324 -0.668116489 0.366670892
C -4.720685714 1.828513266 0.257821722
O -5.153744159 3.137508089 2.055678056
H -5.356501001 2.414016673 -1.657533567
H -4.801728736 -2.140081010 0.246989321
H -2.426158069 -0.840024874 2.200382549
H -2.230128935 -0.939109942 -3.688670940
H 2.208293641 -1.439075766 -3.118140967
H 5.461343403 -3.044420105 -0.311158071
H 5.391840977 -1.556137912 2.699924488
H 5.534225227 0.323529012 -0.080602923

