14

O 3.781813386 1.781052416 -0.017279939
N 2.931973426 1.105947834 -2.232478262
C 0.521360036 0.486215723 -1.762384813
C 0.016979227 -2.058594583 -1.216843010
C -2.288218852 -1.446832884 0.369647097
C -1.536566113 1.392121306 0.070645351
O -0.930049291 2.676726361 2.289268765
H 3.247314481 -0.258848600 1.173549176
H 2.060101829 -1.754389004 0.919622784
H 0.660414872 -3.797067539 -2.090580957
H -2.230167221 -2.101732590 2.316226407
H -4.081574027 -1.974975771 -0.497201324
H -2.961427321 2.454349286 -0.994459057
H 0.822842124 3.150278103 2.191857408

