10

N -2.993460843 0.590020249 -0.099768847
C -0.283469142 -0.088771434 -0.019160198
N 0.259145173 -2.492625670 -0.127770544
O 2.814333534 -2.445986549 -0.011042898
C 3.547290059 0.037341328 0.158889779
C 1.608467905 1.742602329 0.166637354
H -3.953896288 -0.106365597 1.415838314
H -3.843250613 -0.026809337 -1.712812743
H 5.578913999 0.225751105 0.260448952
H -2.990864889 2.522714003 -0.046144542

