8

N -1.509151006 -0.866063543 0.593902408
C -0.872002612 1.437855418 0.236035240
C 3.616262890 0.007410996 -0.678379081
N 3.094692243 -1.754176655 -1.896020311
H -0.726444586 -2.151577027 -0.625200657
H -2.196667215 -1.475815556 2.262086340
H -1.268351936 2.839001527 1.675593850
H -0.091238226 1.990729964 -1.561694746

