11

N 3.197125131 -2.257501713 -1.211845686
C 1.355805967 -0.966740629 -0.248054182
C -1.259804062 -1.721304019 0.021125135
O -2.912722899 0.020441772 -0.054124742
C -1.402176369 2.470094503 -0.111726221
O 0.877979362 1.848583688 -1.008817404
H 4.892612071 -1.689186083 -0.536261321
H -1.860310478 -3.623216137 0.493164756
H 1.178658523 -0.815438517 2.032160490
H -2.455261722 3.774090850 -1.305777244
H -1.439239359 3.030419313 1.894635236

