12

C 3.432189090 0.806744322 -0.765831845
C 0.810630959 0.056558464 -1.166372998
O 1.515203269 2.640679967 -1.130070736
C -0.811225259 -0.827075677 0.986610098
C -3.607041990 -0.529362724 0.522623318
O -4.526378197 0.064987587 -1.460462930
H 0.261643939 -0.631390625 -3.021335985
H 4.229773644 0.732668683 1.126377304
H 4.786100153 0.628889573 -2.297812802
H -0.480260307 -2.836635685 1.377533660
H -0.320094170 0.184259938 2.722207023
H -4.825976530 -0.943415060 2.178846625

