13

O -3.720872761 -1.086612042 0.542708084
C -1.531609512 -1.504408757 -0.431509625
C 0.186853247 0.644970594 -1.292609651
C -0.249920607 3.034096304 0.169790229
O -1.977503053 3.312598906 1.654828462
C 2.894405878 -0.089474866 -1.062474949
C 2.991306914 -1.838266482 0.694198942
H -3.639209343 0.640251041 1.308303581
H 0.989196736 -2.284751469 1.614909112
H -1.348345593 -3.325905715 -1.358626251
H -0.434491878 1.008060531 -3.256439761
H 1.152009114 4.536182852 -0.139649306
H 4.477500960 -3.030351302 1.443644878

