13

C -2.006551753 -1.361694958 2.128187830
C -0.083071661 -1.664388794 0.020061616
N -0.566412241 0.107133676 -2.067379618
C 0.638846880 2.139153060 -2.649214745
C 2.782881480 2.961713558 -1.181100144
O 4.956162578 2.298640219 -1.504016790
H -1.908124800 0.528505280 2.945888179
H -1.643039009 -2.732120526 3.624005438
H -3.928352142 -1.668287431 1.441446805
H -0.137836831 -3.575707364 -0.757235538
H -2.060302064 -0.366392120 -3.166459053
H 1.833952445 -1.319479761 0.684525169
H 2.304464601 4.512514751 0.161231716

