13

C -1.376089550 -1.057890209 2.247377902
C -0.509943370 -1.514596951 -0.420531885
N -1.383337519 0.384518694 -2.287457311
C 1.221636791 0.823221014 -2.278368106
C 2.292042505 2.654840309 -0.540040244
O 3.623459685 2.272654916 1.282494627
H -1.076833182 0.901832524 2.788028830
H -0.341833296 -2.254727028 3.567467176
H -3.389164713 -1.480273931 2.386227419
H -0.823604515 -3.413556523 -1.147087946
H -1.882309479 -0.508643030 -3.908276636
H 1.705020608 -1.505461353 -0.581381291
H 1.983506958 4.595989113 -1.292285072

