11

C -0.761938329 1.707396939 0.232571826
H 0.897256099 2.900428039 0.227942809
C -2.465558650 1.507320692 -1.581028704
H -2.477569334 2.507133060 -3.363154220
C -4.456053003 -0.355635269 -0.821277430
H -4.558510080 -1.970481945 -2.118473938
H -6.342726105 0.500166890 -0.734078381
O -3.726539672 -1.195144853 1.618480487
C -1.448873599 -0.003136889 2.380947014
H -1.758045208 1.035912580 4.148424072
H 0.006861180 -1.435247672 2.742560110

