16

C 3.727905623 -0.641523355 -0.273528635
C 0.379446593 1.344258984 0.373900474
C -1.286765824 1.195106492 -1.752966191
C -3.312559241 -0.708324664 -1.136563948
O -2.460669475 -1.898566755 1.131063239
C -0.845523656 -0.219464024 2.408300913
H 4.699349289 -0.132074149 -2.025093462
H 4.773537707 0.069837097 1.347501565
H 3.435159834 -2.677540700 -0.137451460
H 1.403178415 3.046817374 0.858400647
H -1.445041820 2.666811913 -3.152416744
H 1.233145261 0.051044451 -1.494411936
H -3.573847552 -2.213528372 -2.527775049
H -5.163331855 0.190509413 -0.824401337
H -1.913499786 1.106727705 3.606373254
H 0.438647310 -1.310140470 3.589880782

