11

N -3.348926755 -0.709942477 -0.293269489
C -0.938353863 -0.379630426 0.422756301
C 0.184262206 1.819128734 1.364099483
O 2.767852715 0.869199694 2.339050992
C 2.623129948 0.185811176 -0.034591493
O 3.329242593 1.685625423 -1.813938677
N 0.983753475 -2.028775896 -0.393144424
H -3.697170153 -1.802228403 -1.808667362
H -4.575450908 0.693446056 0.081872913
H 1.607033150 3.010541284 -0.775091503
H 1.389392107 -3.545653670 0.706685421

