11

C 2.566733680 -0.309718817 -0.108061872
C -2.839718263 1.833409848 1.632129034
C -2.242857091 0.577810389 -0.901521476
C -0.153247189 -0.806746306 0.539590357
O -0.980442637 0.609838582 2.768995357
H 3.053700852 -1.299371715 -1.851929334
H 3.812434055 -0.985500659 1.388785921
H 2.898447738 1.706936299 -0.383547545
H -3.787376116 -0.550255517 -1.666747456
H -1.615052354 1.918615180 -2.337247456
H -0.501827506 -2.813157293 0.870578457

