13

C -2.610973813 -1.066575276 -0.223560440
C -2.032104006 1.544586337 0.953786821
C 0.564631968 1.112704493 -0.085579649
N 2.875816794 2.373447144 -1.057318094
C 4.019448714 0.250195752 -0.846529538
C 1.851444903 -1.311311723 0.200815734
N -0.174213889 -1.055486704 -1.722173822
H -4.212835122 -1.105605642 -1.506716169
H -2.760900016 -2.627795758 1.114236588
H -3.028483459 3.047223155 -0.039375581
H -2.204329563 1.807568581 2.987739735
H 5.938287846 -0.178666726 -1.429616288
H 1.819840859 -2.728899658 1.670648172

