13

C -2.590201471 -1.094852118 -0.087300849
C -1.839519465 1.602581824 0.758305161
C 0.395036362 1.155928954 -0.911818877
N 2.588038434 2.326891209 -1.663483767
C 3.697194172 0.346962088 -0.498349805
C 1.996554894 -1.651649999 -0.145530247
N -0.334131433 -1.231692912 -1.814745949
H -4.319786308 -1.203746376 -1.192291480
H -2.602732245 -2.535453233 1.381411491
H -3.043588644 3.074571309 -0.037949461
H -1.477024528 2.008810126 2.739370461
H 5.610677706 0.408784308 0.252166736
H 1.965109964 -3.145751226 1.236575927

