12

O -0.247394932 2.289277665 2.139991683
C 0.744679328 1.973388231 -0.332134428
C -1.724660135 0.966418337 0.333727807
C -1.437764050 -1.857488455 0.517250166
O 1.200714670 -2.313049154 0.552222817
C 2.504997027 -0.250358759 -0.549682855
H 1.030124746 3.676219705 -1.435421470
H -3.501086010 1.826749981 -0.216262242
H -2.241257835 -2.652285739 2.242990808
H -2.342746124 -2.751775700 -1.123531206
H 2.929343815 -0.601117402 -2.551818355
H 4.276758037 -0.000804948 0.476996920

