14

C 2.491542158 -2.214228118 -1.733456564
N 2.934933247 3.888653872 1.569232278
C 0.891393885 3.317398621 1.131952015
C -1.750195853 2.659995557 0.537336575
O -1.970185126 1.088111956 -1.581222136
C -1.839701994 -1.516101626 -1.033250088
O 0.441322614 -2.266806497 -0.012463783
H 2.881525108 -0.296836573 -2.392169247
H 4.134664900 -2.922084735 -0.722230761
H 2.105748182 -3.436203416 -3.360232439
H -2.754726734 4.411159422 0.119427592
H -2.601538202 1.805391559 2.220700733
H -2.223583132 -2.444141817 -2.842981574
H -3.282720881 -2.014876299 0.364358793

