10

N 5.516370338 0.114247456 0.967984447
C 3.461313814 -0.478677152 0.624096452
C 0.829338189 -1.177989636 0.180530148
C -0.829366630 1.178108065 -0.180323109
C -3.461207668 0.478627074 -0.624326640
N -5.516106570 -0.114587380 -0.968662405
H 0.160945007 -2.290836217 1.782448376
H 0.737510747 -2.385072758 -1.488515045
H -0.160883931 2.291136740 -1.782076364
H -0.737913296 2.385043826 1.488844160

