10

C 2.441379605 -2.519368791 0.226923434
C 2.381784767 -0.595208360 -1.617422845
H 1.544211964 -0.757775130 -3.489173725
C 4.745330956 1.181083703 -1.514831031
H 6.196356707 0.597945364 -0.204784045
H 5.379143870 1.765299886 -3.367946093
C 2.383837104 2.145012987 -0.535351890
H 1.291620739 3.450701886 -1.666490491
H 2.127400532 2.264375932 1.485508056
H 1.520897675 -4.223247267 -0.561413424

