8

C -4.197966360 0.731404210 0.859996615
C -3.528018443 -1.533602588 2.503359730
H -4.356978102 -1.367015935 4.385404250
H -4.219410934 -3.292535533 1.675855860
H -1.486178739 -1.716110466 2.736868123
H -3.370896485 0.563739601 -1.022808860
H -3.504755367 2.490112051 1.686394901
H -6.239893559 0.915134137 0.627980822

