13

C -2.215183129 1.545539024 0.244798675
C -1.661837021 -1.200419438 -0.157492005
C -1.220192190 0.665666723 -2.229593141
N 3.111641159 0.017798820 -0.163677570
C 3.248815056 -0.116433737 2.205151537
C 0.879410678 -0.973908323 -1.366812034
H -1.028125132 2.665161747 1.490784701
H -4.196162730 2.074870114 0.284572667
H -2.958147947 -2.771616350 -0.126280192
H -2.084088293 0.773731619 -4.070300205
H 4.921930038 0.612608788 3.154084521
H 1.749214934 -0.946712518 3.370775126
H 1.386213739 -2.463821765 -2.686936400

