17

C 3.584695563 -2.724106689 0.488634515
C 2.314263397 -0.387977479 1.285842126
C -0.754656119 4.081416538 -0.688920408
C -2.064455663 1.813332604 0.424013762
O -3.436425497 0.364784416 -1.437577251
C -1.946292034 -1.852135711 -1.065066519
C -0.412110944 -0.510385622 1.031296735
H 5.398501109 -3.038618721 1.411635355
H 4.053023422 -2.209618698 -1.482599012
H 2.463451946 -4.469105644 0.404569538
H 0.330160079 5.060417691 0.765243763
H -2.145630531 5.382779514 -1.479162072
H 0.548628236 3.517022146 -2.186447160
H -3.336323983 2.382580361 1.953230428
H -0.866817109 -2.356595209 -2.757883522
H -3.089903734 -3.473118158 -0.488300015
H -0.805587715 -1.280909695 2.937974761

