11

O 2.082674759 -2.003002941 2.058562496
C 2.019201806 -0.822966430 -0.065136705
N 0.139769587 -1.867320530 -1.577165178
C -1.883924023 -0.383267128 -0.546179529
C -0.808305027 2.105436623 -0.240187781
C 1.744413140 1.884288986 -0.068683853
H -0.023553244 -3.733500781 -1.200772117
H -0.427343724 -1.547303782 2.143196223
H -3.791242420 -0.667236386 -1.247081784
H -1.919480354 3.793167107 0.055289739
H 3.090009956 3.217463857 0.674688503

