14

C -3.730993227 -0.677938624 0.430201557
C -1.100223059 0.248102993 0.193602933
O -0.540894230 1.822610857 -1.512449239
C 1.743931430 2.892821343 -2.001273880
C 2.624696229 -2.005458678 0.834346757
O 0.628948494 -0.483737876 1.884535444
H -3.801821183 -2.738032969 0.275495821
H -4.912642015 0.153101642 -1.031879224
H -4.496739147 -0.177783544 2.283253823
H 1.920377690 -3.916510192 0.510777684
H 1.486137940 4.494791879 -3.237958598
H 2.961389696 3.064786515 -0.363058170
H 3.332373435 -1.187671780 -0.927131403
H 4.124075536 -2.042926259 2.237461167

