14

C -3.726899268 -0.710429233 0.805302857
C -1.098767819 -0.880023252 -0.257128892
O -0.478375589 1.338953011 -1.613154596
C 2.112406538 1.876104393 -1.185430168
C 2.976331912 -0.246384495 0.581429082
O 0.693640112 -1.070610919 1.686413949
H -4.182333166 -2.430747571 1.842970200
H -5.083614136 -0.474704097 -0.726077469
H -3.852301588 0.907512814 2.073585138
H -0.899728144 -2.517620964 -1.534420008
H 3.149965429 1.887507322 -2.971285285
H 2.271066639 3.735674948 -0.301342720
H 4.248452227 0.376195055 2.073578278
H 3.870156835 -1.791427050 -0.474440348

