28

C     1.66930   0.80365   1.83083
C     1.93114   0.61053   0.35943
O     3.07680   0.45458  -0.04763
C     0.78459   0.46395  -0.64953
C     1.21753   1.01401  -2.01427
N    -0.44194   1.14516  -0.25139
N    -0.99274   0.31407   0.77235
C    -2.22470   0.72047   1.10826
N    -3.32138   0.98622   1.43644
C    -0.67142  -1.36476   0.41153
C    -1.98877  -2.00384   0.01470
C     0.44263  -1.22178  -0.60878
C     0.13038  -1.75819  -2.01764
H     2.63420   0.93992   2.33750
H     1.17819  -0.10244   2.24167
H     0.99605   1.64160   2.03370
H     2.03784   0.42015  -2.37747
H     1.58032   2.09410  -2.00532
H     0.37972   0.98465  -2.73005
H    -1.08306   1.20682  -1.06350
H    -0.29932  -1.76544   1.40891
H    -1.95839  -3.08297  -0.24751
H    -2.38851  -1.47167  -0.85677
H    -2.70092  -1.89535   0.85051
H     1.41007  -1.74508  -0.23172
H    -0.68534  -1.16453  -2.44406
H     1.01676  -1.63924  -2.66505
H    -0.17813  -2.83159  -2.11177
28

C     1.66910   0.80241   1.83159
C     1.92980   0.61205   0.36000
O     3.07470   0.45398  -0.04864
C     0.78605   0.48680  -0.64794
C     1.21738   1.01948  -2.01534
N    -0.44236   1.13938  -0.25333
N    -0.99143   0.33292   0.77748
C    -2.22553   0.72838   1.10676
N    -3.32361   0.98545   1.43602
C    -0.66414  -1.38805   0.40840
C    -1.98923  -2.00464   0.01515
C     0.44040  -1.24808  -0.60607
C     0.13062  -1.76043  -2.01908
H     2.63434   0.93928   2.33740
H     1.17817  -0.10292   2.24164
H     0.99612   1.64119   2.03456
H     2.03658   0.41935  -2.37612
H     1.58258   2.09484  -2.00861
H     0.37930   0.98600  -2.72982
H    -1.08318   1.21200  -1.06266
H    -0.29862  -1.76605   1.40939
H    -1.96310  -3.08293  -0.24842
H    -2.38738  -1.46996  -0.85602
H    -2.70014  -1.89358   0.85105
H     1.41201  -1.74294  -0.23226
H    -0.68479  -1.16323  -2.44253
H     1.01703  -1.63845  -2.66478
H    -0.17912  -2.83147  -2.11636
28

C     1.66890   0.80117   1.83235
C     1.92845   0.61357   0.36056
O     3.07260   0.45338  -0.04966
C     0.78751   0.50964  -0.64634
C     1.21723   1.02496  -2.01641
N    -0.44279   1.13360  -0.25527
N    -0.99011   0.35177   0.78260
C    -2.22637   0.73630   1.10525
N    -3.32583   0.98468   1.43559
C    -0.65685  -1.41134   0.40526
C    -1.98969  -2.00545   0.01561
C     0.43816  -1.27438  -0.60335
C     0.13086  -1.76267  -2.02052
H     2.63448   0.93864   2.33731
H     1.17816  -0.10340   2.24161
H     0.99619   1.64079   2.03542
H     2.03533   0.41855  -2.37477
H     1.58483   2.09558  -2.01190
H     0.37888   0.98735  -2.72959
H    -1.08329   1.21718  -1.06183
H    -0.29791  -1.76665   1.40987
H    -1.96781  -3.08289  -0.24933
H    -2.38626  -1.46824  -0.85526
H    -2.69936  -1.89181   0.85159
H     1.41396  -1.74079  -0.23280
H    -0.68423  -1.16193  -2.44100
H     1.01731  -1.63767  -2.66451
H    -0.18011  -2.83135  -2.12095
28

C     1.66871   0.79992   1.83311
C     1.92711   0.61509   0.36113
O     3.07050   0.45278  -0.05067
C     0.78897   0.53249  -0.64475
C     1.21708   1.03044  -2.01747
N    -0.44321   1.12782  -0.25722
N    -0.98879   0.37062   0.78773
C    -2.22720   0.74421   1.10374
N    -3.32806   0.98390   1.43517
C    -0.64957  -1.43462   0.40213
C    -1.99015  -2.00626   0.01606
C     0.43593  -1.30068  -0.60064
C     0.13110  -1.76491  -2.02196
H     2.63463   0.93800   2.33722
H     1.17814  -0.10388   2.24159
H     0.99627   1.64038   2.03628
H     2.03408   0.41775  -2.37342
H     1.58708   2.09631  -2.01519
H     0.37846   0.98870  -2.72936
H    -1.08341   1.22236  -1.06099
H    -0.29720  -1.76726   1.41034
H    -1.97253  -3.08285  -0.25024
H    -2.38514  -1.46653  -0.85451
H    -2.69859  -1.89004   0.85214
H     1.41591  -1.73865  -0.23334
H    -0.68368  -1.16063  -2.43947
H     1.01758  -1.63688  -2.66425
H    -0.18110  -2.83123  -2.12553
28

C     1.66851   0.79868   1.83387
C     1.92577   0.61661   0.36170
O     3.06840   0.45218  -0.05168
C     0.79042   0.55533  -0.64316
C     1.21693   1.03591  -2.01854
N    -0.44364   1.12204  -0.25916
N    -0.98748   0.38947   0.79286
C    -2.22803   0.75213   1.10224
N    -3.33028   0.98313   1.43474
C    -0.64229  -1.45791   0.39899
C    -1.99061  -2.00707   0.01651
C     0.43370  -1.32698  -0.59792
C     0.13134  -1.76715  -2.02341
H     2.63477   0.93736   2.33712
H     1.17812  -0.10436   2.24156
H     0.99634   1.63997   2.03714
H     2.03282   0.41695  -2.37207
H     1.58934   2.09705  -2.01848
H     0.37803   0.99004  -2.72913
H    -1.08352   1.22754  -1.06015
H    -0.29649  -1.76786   1.41082
H    -1.97724  -3.08281  -0.25115
H    -2.38401  -1.46482  -0.85376
H    -2.69781  -1.88827   0.85268
H     1.41786  -1.73651  -0.23388
H    -0.68313  -1.15933  -2.43793
H     1.01786  -1.63609  -2.66398
H    -0.18210  -2.83112  -2.13012
28

C     1.66831   0.79744   1.83463
C     1.92443   0.61813   0.36227
O     3.06631   0.45158  -0.05269
C     0.79188   0.57817  -0.64157
C     1.21678   1.04139  -2.01960
N    -0.44407   1.11626  -0.26110
N    -0.98616   0.40832   0.79798
C    -2.22887   0.76005   1.10073
N    -3.33251   0.98235   1.43432
C    -0.63501  -1.48120   0.39586
C    -1.99107  -2.00788   0.01696
C     0.43146  -1.35329  -0.59521
C     0.13158  -1.76939  -2.02485
H     2.63491   0.93672   2.33703
H     1.17811  -0.10484   2.24153
H     0.99641   1.63956   2.03800
H     2.03157   0.41615  -2.37072
H     1.59159   2.09779  -2.02177
H     0.37761   0.99139  -2.72890
H    -1.08364   1.23272  -1.05931
H    -0.29579  -1.76847   1.41130
H    -1.98196  -3.08277  -0.25206
H    -2.38289  -1.46311  -0.85300
H    -2.69703  -1.88650   0.85322
H     1.41981  -1.73437  -0.23442
H    -0.68258  -1.15802  -2.43640
H     1.01813  -1.63530  -2.66371
H    -0.18309  -2.83100  -2.13471
28

C     1.66811   0.79620   1.83539
C     1.92309   0.61965   0.36284
O     3.06421   0.45098  -0.05370
C     0.79334   0.60102  -0.63998
C     1.21663   1.04686  -2.02067
N    -0.44449   1.11049  -0.26304
N    -0.98484   0.42717   0.80311
C    -2.22970   0.76796   1.09922
N    -3.33474   0.98158   1.43389
C    -0.62773  -1.50449   0.39272
C    -1.99153  -2.00869   0.01741
C     0.42923  -1.37959  -0.59249
C     0.13182  -1.77163  -2.02629
H     2.63505   0.93608   2.33693
H     1.17809  -0.10532   2.24150
H     0.99648   1.63915   2.03886
H     2.03032   0.41536  -2.36937
H     1.59385   2.09853  -2.02506
H     0.37719   0.99274  -2.72867
H    -1.08375   1.23790  -1.05847
H    -0.29508  -1.76907   1.41178
H    -1.98667  -3.08273  -0.25297
H    -2.38176  -1.46139  -0.85225
H    -2.69626  -1.88473   0.85376
H     1.42176  -1.73222  -0.23496
H    -0.68203  -1.15672  -2.43487
H     1.01841  -1.63451  -2.66345
H    -0.18408  -2.83088  -2.13930
28

C     1.66791   0.79496   1.83615
C     1.92175   0.62117   0.36341
O     3.06211   0.45037  -0.05471
C     0.79479   0.62386  -0.63838
C     1.21648   1.05234  -2.02174
N    -0.44492   1.10471  -0.26498
N    -0.98353   0.44602   0.80824
C    -2.23053   0.77588   1.09772
N    -3.33696   0.98081   1.43347
C    -0.62045  -1.52777   0.38959
C    -1.99199  -2.00949   0.01786
C     0.42700  -1.40589  -0.58978
C     0.13206  -1.77387  -2.02774
H     2.63520   0.93544   2.33684
H     1.17807  -0.10579   2.24148
H     0.99655   1.63874   2.03972
H     2.02906   0.41456  -2.36803
H     1.59610   2.09927  -2.02836
H     0.37677   0.99409  -2.72844
H    -1.08387   1.24308  -1.05763
H    -0.29437  -1.76968   1.41226
H    -1.99139  -3.08269  -0.25388
H    -2.38064  -1.45968  -0.85150
H    -2.69548  -1.88296   0.85430
H     1.42371  -1.73008  -0.23550
H    -0.68147  -1.15542  -2.43333
H     1.01868  -1.63372  -2.66318
H    -0.18507  -2.83076  -2.14388
28

C     1.66772   0.79372   1.83691
C     1.92041   0.62269   0.36397
O     3.06001   0.44977  -0.05573
C     0.79625   0.64671  -0.63679
C     1.21633   1.05781  -2.02280
N    -0.44534   1.09893  -0.26692
N    -0.98221   0.46487   0.81336
C    -2.23136   0.78379   1.09621
N    -3.33919   0.98003   1.43304
C    -0.61317  -1.55106   0.38646
C    -1.99245  -2.01030   0.01832
C     0.42476  -1.43219  -0.58706
C     0.13230  -1.77612  -2.02918
H     2.63534   0.93480   2.33675
H     1.17806  -0.10627   2.24145
H     0.99663   1.63833   2.04058
H     2.02781   0.41376  -2.36668
H     1.59836   2.10000  -2.03165
H     0.37634   0.99544  -2.72821
H    -1.08398   1.24826  -1.05679
H    -0.29366  -1.77029   1.41274
H    -1.99610  -3.08265  -0.25479
H    -2.37951  -1.45797  -0.85074
H    -2.69470  -1.88119   0.85485
H     1.42566  -1.72794  -0.23604
H    -0.68092  -1.15412  -2.43180
H     1.01896  -1.63293  -2.66291
H    -0.18606  -2.83064  -2.14847
28

C     1.66752   0.79248   1.83767
C     1.91907   0.62421   0.36454
O     3.05791   0.44917  -0.05674
C     0.79771   0.66955  -0.63520
C     1.21618   1.06329  -2.02387
N    -0.44577   1.09315  -0.26886
N    -0.98089   0.48372   0.81849
C    -2.23220   0.79171   1.09470
N    -3.34142   0.97926   1.43262
C    -0.60588  -1.57435   0.38332
C    -1.99291  -2.01111   0.01877
C     0.42253  -1.45849  -0.58434
C     0.13254  -1.77836  -2.03062
H     2.63548   0.93416   2.33665
H     1.17804  -0.10675   2.24142
H     0.99670   1.63793   2.04144
H     2.02656   0.41296  -2.36533
H     1.60061   2.10074  -2.03494
H     0.37592   0.99679  -2.72798
H    -1.08410   1.25344  -1.05595
H    -0.29296  -1.77089   1.41322
H    -2.00081  -3.08260  -0.25570
H    -2.37839  -1.45626  -0.84999
H    -2.69393  -1.87942   0.85539
H     1.42761  -1.72580  -0.23658
H    -0.68037  -1.15282  -2.43027
H     1.01923  -1.63214  -2.66265
H    -0.18705  -2.83052  -2.15306
28

C     1.66732   0.79124   1.83844
C     1.91773   0.62573   0.36511
O     3.05582   0.44857  -0.05775
C     0.79917   0.69240  -0.63361
C     1.21603   1.06877  -2.02494
N    -0.44620   1.08737  -0.27080
N    -0.97958   0.50257   0.82362
C    -2.23303   0.79963   1.09320
N    -3.34364   0.97848   1.43219
C    -0.59860  -1.59764   0.38019
C    -1.99337  -2.01192   0.01922
C     0.42030  -1.48479  -0.58163
C     0.13278  -1.78060  -2.03206
H     2.63563   0.93352   2.33656
H     1.17802  -0.10723   2.24140
H     0.99677   1.63752   2.04230
H     2.02530   0.41216  -2.36398
H     1.60287   2.10148  -2.03823
H     0.37550   0.99813  -2.72775
H    -1.08421   1.25862  -1.05511
H    -0.29225  -1.77150   1.41370
H    -2.00553  -3.08256  -0.25661
H    -2.37727  -1.45454  -0.84923
H    -2.69315  -1.87765   0.85593
H     1.42955  -1.72366  -0.23712
H    -0.67982  -1.15152  -2.42873
H     1.01951  -1.63135  -2.66238
H    -0.18804  -2.83040  -2.15764
28

C     1.66712   0.79000   1.83920
C     1.91639   0.62725   0.36568
O     3.05372   0.44797  -0.05876
C     0.80062   0.71524  -0.63202
C     1.21588   1.07424  -2.02600
N    -0.44662   1.08159  -0.27274
N    -0.97826   0.52142   0.82874
C    -2.23386   0.80754   1.09169
N    -3.34587   0.97771   1.43177
C    -0.59132  -1.62093   0.37705
C    -1.99383  -2.01273   0.01967
C     0.41807  -1.51109  -0.57891
C     0.13302  -1.78284  -2.03351
H     2.63577   0.93288   2.33647
H     1.17800  -0.10771   2.24137
H     0.99684   1.63711   2.04316
H     2.02405   0.41136  -2.36263
H     1.60512   2.10222  -2.04152
H     0.37508   0.99948  -2.72752
H    -1.08433   1.26380  -1.05427
H    -0.29154  -1.77210   1.41418
H    -2.01024  -3.08252  -0.25752
H    -2.37614  -1.45283  -0.84848
H    -2.69237  -1.87589   0.85647
H     1.43150  -1.72151  -0.23766
H    -0.67926  -1.15022  -2.42720
H     1.01978  -1.63056  -2.66211
H    -0.18903  -2.83028  -2.16223
28

C     1.66693   0.78876   1.83996
C     1.91505   0.62876   0.36625
O     3.05162   0.44737  -0.05977
C     0.80208   0.73808  -0.63043
C     1.21573   1.07972  -2.02707
N    -0.44705   1.07582  -0.27469
N    -0.97694   0.54027   0.83387
C    -2.23470   0.81546   1.09018
N    -3.34809   0.97694   1.43135
C    -0.58404  -1.64421   0.37392
C    -1.99429  -2.01354   0.02012
C     0.41583  -1.53739  -0.57620
C     0.13326  -1.78508  -2.03495
H     2.63591   0.93224   2.33637
H     1.17799  -0.10819   2.24134
H     0.99692   1.63670   2.04402
H     2.02280   0.41057  -2.36128
H     1.60737   2.10296  -2.04481
H     0.37466   1.00083  -2.72729
H    -1.08444   1.26898  -1.05344
H    -0.29084  -1.77271   1.41466
H    -2.01496  -3.08248  -0.25843
H    -2.37502  -1.45112  -0.84773
H    -2.69160  -1.87412   0.85702
H     1.43345  -1.71937  -0.23820
H    -0.67871  -1.14892  -2.42567
H     1.02006  -1.62978  -2.66184
H    -0.19002  -2.83017  -2.16682
28

C     1.66673   0.78752   1.84072
C     1.91371   0.63028   0.36682
O     3.04952   0.44677  -0.06078
C     0.80354   0.76093  -0.62883
C     1.21558   1.08519  -2.02814
N    -0.44747   1.07004  -0.27663
N    -0.97563   0.55912   0.83900
C    -2.23553   0.82337   1.08868
N    -3.35032   0.97616   1.43092
C    -0.57676  -1.66750   0.37078
C    -1.99475  -2.01434   0.02058
C     0.41360  -1.56369  -0.57348
C     0.13350  -1.78732  -2.03639
H     2.63605   0.93160   2.33628
H     1.17797  -0.10867   2.24131
H     0.99699   1.63629   2.04488
H     2.02155   0.40977  -2.35993
H     1.60963   2.10369  -2.04810
H     0.37423   1.00218  -2.72706
H    -1.08456   1.27415  -1.05260
H    -0.29013  -1.77331   1.41514
H    -2.01967  -3.08244  -0.25934
H    -2.37389  -1.44940  -0.84697
H    -2.69082  -1.87235   0.85756
H     1.43540  -1.71723  -0.23874
H    -0.67816  -1.14761  -2.42414
H     1.02033  -1.62899  -2.66158
H    -0.19102  -2.83005  -2.17140
28

C     1.66653   0.78628   1.84148
C     1.91236   0.63180   0.36739
O     3.04743   0.44617  -0.06179
C     0.80500   0.78377  -0.62724
C     1.21543   1.09067  -2.02920
N    -0.44790   1.06426  -0.27857
N    -0.97431   0.57797   0.84412
C    -2.23636   0.83129   1.08717
N    -3.35255   0.97539   1.43050
C    -0.56948  -1.69079   0.36765
C    -1.99521  -2.01515   0.02103
C     0.41137  -1.58999  -0.57077
C     0.13374  -1.78956  -2.03784
H     2.63620   0.93096   2.33619
H     1.17795  -0.10915   2.24129
H     0.99706   1.63588   2.04573
H     2.02029   0.40897  -2.35858
H     1.61188   2.10443  -2.05139
H     0.37381   1.00353  -2.72683
H    -1.08467   1.27933  -1.05176
H    -0.28942  -1.77392   1.41562
H    -2.02438  -3.08240  -0.26025
H    -2.37277  -1.44769  -0.84622
H    -2.69004  -1.87058   0.85810
H     1.43735  -1.71509  -0.23928
H    -0.67761  -1.14631  -2.42260
H     1.02061  -1.62820  -2.66131
H    -0.19201  -2.82993  -2.17599
28

C     1.66633   0.78504   1.84224
C     1.91102   0.63332   0.36795
O     3.04533   0.44557  -0.06281
C     0.80645   0.80662  -0.62565
C     1.21528   1.09614  -2.03027
N    -0.44833   1.05848  -0.28051
N    -0.97299   0.59683   0.84925
C    -2.23719   0.83920   1.08566
N    -3.35477   0.97461   1.43007
C    -0.56219  -1.71408   0.36452
C    -1.99567  -2.01596   0.02148
C     0.40913  -1.61629  -0.56805
C     0.13398  -1.79180  -2.03928
H     2.63634   0.93032   2.33609
H     1.17794  -0.10963   2.24126
H     0.99713   1.63548   2.04659
H     2.01904   0.40817  -2.35723
H     1.61414   2.10517  -2.05468
H     0.37339   1.00488  -2.72660
H    -1.08479   1.28451  -1.05092
H    -0.28871  -1.77452   1.41610
H    -2.02910  -3.08236  -0.26116
H    -2.37165  -1.44598  -0.84547
H    -2.68927  -1.86881   0.85864
H     1.43930  -1.71294  -0.23982
H    -0.67705  -1.14501  -2.42107
H     1.02088  -1.62741  -2.66104
H    -0.19300  -2.82981  -2.18058
28

C     1.66614   0.78380   1.84300
C     1.90968   0.63484   0.36852
O     3.04323   0.44496  -0.06382
C     0.80791   0.82946  -0.62406
C     1.21513   1.10162  -2.03133
N    -0.44875   1.05270  -0.28245
N    -0.97168   0.61568   0.85437
C    -2.23803   0.84712   1.08416
N    -3.35700   0.97384   1.42965
C    -0.55491  -1.73736   0.36138
C    -1.99613  -2.01677   0.02193
C     0.40690  -1.64259  -0.56534
C     0.13422  -1.79404  -2.04072
H     2.63648   0.92969   2.33600
H     1.17792  -0.11011   2.24123
H     0.99721   1.63507   2.04745
H     2.01779   0.40737  -2.35588
H     1.61639   2.10591  -2.05797
H     0.37297   1.00622  -2.72637
H    -1.08490   1.28969  -1.05008
H    -0.28801  -1.77513   1.41658
H    -2.03381  -3.08232  -0.26207
H    -2.37052  -1.44427  -0.84471
H    -2.68849  -1.86704   0.85918
H     1.44125  -1.71080  -0.24036
H    -0.67650  -1.14371  -2.41954
H     1.02116  -1.62662  -2.66078
H    -0.19399  -2.82969  -2.18517
28

C     1.66594   0.78255   1.84376
C     1.90834   0.63636   0.36909
O     3.04113   0.44436  -0.06483
C     0.80937   0.85231  -0.62247
C     1.21498   1.10709  -2.03240
N    -0.44918   1.04692  -0.28439
N    -0.97036   0.63453   0.85950
C    -2.23886   0.85504   1.08265
N    -3.35923   0.97306   1.42922
C    -0.54763  -1.76065   0.35825
C    -1.99659  -2.01758   0.02238
C     0.40467  -1.66889  -0.56262
C     0.13447  -1.79628  -2.04216
H     2.63663   0.92905   2.33590
H     1.17790  -0.11058   2.24120
H     0.99728   1.63466   2.04831
H     2.01653   0.40657  -2.35453
H     1.61865   2.10665  -2.06126
H     0.37255   1.00757  -2.72614
H    -1.08502   1.29487  -1.04924
H    -0.28730  -1.77574   1.41705
H    -2.03853  -3.08228  -0.26298
H    -2.36940  -1.44255  -0.84396
H    -2.68771  -1.86527   0.85973
H     1.44320  -1.70866  -0.24090
H    -0.67595  -1.14241  -2.41800
H     1.02143  -1.62583  -2.66051
H    -0.19498  -2.82957  -2.18975
28

C     1.66574   0.78131   1.84452
C     1.90700   0.63788   0.36966
O     3.03903   0.44376  -0.06584
C     0.81083   0.87515  -0.62087
C     1.21483   1.11257  -2.03347
N    -0.44960   1.04114  -0.28633
N    -0.96904   0.65338   0.86463
C    -2.23969   0.86295   1.08114
N    -3.36145   0.97229   1.42880
C    -0.54035  -1.78394   0.35511
C    -1.99705  -2.01838   0.02283
C     0.40243  -1.69519  -0.55991
C     0.13471  -1.79853  -2.04361
H     2.63677   0.92841   2.33581
H     1.17789  -0.11106   2.24118
H     0.99735   1.63425   2.04917
H     2.01528   0.40578  -2.35318
H     1.62090   2.10738  -2.06455
H     0.37212   1.00892  -2.72591
H    -1.08513   1.30005  -1.04840
H    -0.28659  -1.77634   1.41753
H    -2.04324  -3.08224  -0.26389
H    -2.36827  -1.44084  -0.84321
H    -2.68694  -1.86350   0.86027
H     1.44515  -1.70652  -0.24144
H    -0.67540  -1.14111  -2.41647
H     1.02171  -1.62504  -2.66024
H    -0.19597  -2.82945  -2.19434
28

C     1.66554   0.78007   1.84528
C     1.90566   0.63940   0.37023
O     3.03694   0.44316  -0.06685
C     0.81228   0.89799  -0.61928
C     1.21468   1.11805  -2.03453
N    -0.45003   1.03537  -0.28827
N    -0.96773   0.67223   0.86975
C    -2.24053   0.87087   1.07964
N    -3.36368   0.97152   1.42837
C    -0.53307  -1.80723   0.35198
C    -1.99750  -2.01919   0.02329
C     0.40020  -1.72149  -0.55719
C     0.13495  -1.80077  -2.04505
H     2.63691   0.92777   2.33572
H     1.17787  -0.11154   2.24115
H     0.99742   1.63384   2.05003
H     2.01403   0.40498  -2.35183
H     1.62316   2.10812  -2.06784
H     0.37170   1.01027  -2.72567
H    -1.08525   1.30523  -1.04756
H    -0.28588  -1.77695   1.41801
H    -2.04796  -3.08220  -0.26480
H    -2.36715  -1.43913  -0.84245
H    -2.68616  -1.86173   0.86081
H     1.44710  -1.70438  -0.24198
H    -0.67485  -1.13981  -2.41494
H     1.02198  -1.62425  -2.65998
H    -0.19696  -2.82933  -2.19893
28

C     1.66535   0.77883   1.84604
C     1.90432   0.64092   0.37080
O     3.03484   0.44256  -0.06786
C     0.81374   0.92084  -0.61769
C     1.21453   1.12352  -2.03560
N    -0.45046   1.02959  -0.29021
N    -0.96641   0.69108   0.87488
C    -2.24136   0.87878   1.07813
N    -3.36590   0.97074   1.42795
C    -0.52579  -1.83051   0.34884
C    -1.99796  -2.02000   0.02374
C     0.39797  -1.74780  -0.55448
C     0.13519  -1.80301  -2.04649
H     2.63705   0.92713   2.33562
H     1.17785  -0.11202   2.24112
H     0.99750   1.63343   2.05089
H     2.01277   0.40418  -2.35048
H     1.62541   2.10886  -2.07113
H     0.37128   1.01162  -2.72544
H    -1.08536   1.31041  -1.04672
H    -0.28518  -1.77755   1.41849
H    -2.05267  -3.08216  -0.26571
H    -2.36602  -1.43742  -0.84170
H    -2.68538  -1.85996   0.86135
H     1.44904  -1.70223  -0.24252
H    -0.67429  -1.13850  -2.41340
H     1.02226  -1.62346  -2.65971
H    -0.19795  -2.82921  -2.20351
28

C     1.66554   0.78007   1.84528
C     1.90566   0.63940   0.37023
O     3.03694   0.44316  -0.06685
C     0.81228   0.89799  -0.61928
C     1.21468   1.11805  -2.03453
N    -0.45003   1.03537  -0.28827
N    -0.96773   0.67223   0.86975
C    -2.24053   0.87087   1.07964
N    -3.36368   0.97152   1.42837
C    -0.53307  -1.80723   0.35198
C    -1.99750  -2.01919   0.02329
C     0.40020  -1.72149  -0.55719
C     0.13495  -1.80077  -2.04505
H     2.63691   0.92777   2.33572
H     1.17787  -0.11154   2.24115
H     0.99742   1.63384   2.05003
H     2.01403   0.40498  -2.35183
H     1.62316   2.10812  -2.06784
H     0.37170   1.01027  -2.72567
H    -1.08525   1.30523  -1.04756
H    -0.28588  -1.77695   1.41801
H    -2.04796  -3.08220  -0.26480
H    -2.36715  -1.43913  -0.84245
H    -2.68616  -1.86173   0.86081
H     1.44710  -1.70438  -0.24198
H    -0.67485  -1.13981  -2.41494
H     1.02198  -1.62425  -2.65998
H    -0.19696  -2.82933  -2.19893
28

C     1.66574   0.78131   1.84452
C     1.90700   0.63788   0.36966
O     3.03903   0.44376  -0.06584
C     0.81083   0.87515  -0.62087
C     1.21483   1.11257  -2.03347
N    -0.44960   1.04114  -0.28633
N    -0.96904   0.65338   0.86463
C    -2.23969   0.86295   1.08114
N    -3.36145   0.97229   1.42880
C    -0.54035  -1.78394   0.35511
C    -1.99705  -2.01838   0.02283
C     0.40243  -1.69519  -0.55991
C     0.13471  -1.79853  -2.04361
H     2.63677   0.92841   2.33581
H     1.17789  -0.11106   2.24118
H     0.99735   1.63425   2.04917
H     2.01528   0.40578  -2.35318
H     1.62090   2.10738  -2.06455
H     0.37212   1.00892  -2.72591
H    -1.08513   1.30005  -1.04840
H    -0.28659  -1.77634   1.41753
H    -2.04324  -3.08224  -0.26389
H    -2.36827  -1.44084  -0.84321
H    -2.68694  -1.86350   0.86027
H     1.44515  -1.70652  -0.24144
H    -0.67540  -1.14111  -2.41647
H     1.02171  -1.62504  -2.66024
H    -0.19597  -2.82945  -2.19434
28

C     1.66594   0.78255   1.84376
C     1.90834   0.63636   0.36909
O     3.04113   0.44436  -0.06483
C     0.80937   0.85231  -0.62247
C     1.21498   1.10709  -2.03240
N    -0.44918   1.04692  -0.28439
N    -0.97036   0.63453   0.85950
C    -2.23886   0.85504   1.08265
N    -3.35923   0.97306   1.42922
C    -0.54763  -1.76065   0.35825
C    -1.99659  -2.01758   0.02238
C     0.40467  -1.66889  -0.56262
C     0.13447  -1.79628  -2.04216
H     2.63663   0.92905   2.33590
H     1.17790  -0.11058   2.24120
H     0.99728   1.63466   2.04831
H     2.01653   0.40657  -2.35453
H     1.61865   2.10665  -2.06126
H     0.37255   1.00757  -2.72614
H    -1.08502   1.29487  -1.04924
H    -0.28730  -1.77574   1.41705
H    -2.03853  -3.08228  -0.26298
H    -2.36940  -1.44255  -0.84396
H    -2.68771  -1.86527   0.85973
H     1.44320  -1.70866  -0.24090
H    -0.67595  -1.14241  -2.41800
H     1.02143  -1.62583  -2.66051
H    -0.19498  -2.82957  -2.18975
28

C     1.66614   0.78380   1.84300
C     1.90968   0.63484   0.36852
O     3.04323   0.44496  -0.06382
C     0.80791   0.82946  -0.62406
C     1.21513   1.10162  -2.03133
N    -0.44875   1.05270  -0.28245
N    -0.97168   0.61568   0.85437
C    -2.23803   0.84712   1.08416
N    -3.35700   0.97384   1.42965
C    -0.55491  -1.73736   0.36138
C    -1.99613  -2.01677   0.02193
C     0.40690  -1.64259  -0.56534
C     0.13422  -1.79404  -2.04072
H     2.63648   0.92969   2.33600
H     1.17792  -0.11011   2.24123
H     0.99721   1.63507   2.04745
H     2.01779   0.40737  -2.35588
H     1.61639   2.10591  -2.05797
H     0.37297   1.00622  -2.72637
H    -1.08490   1.28969  -1.05008
H    -0.28801  -1.77513   1.41658
H    -2.03381  -3.08232  -0.26207
H    -2.37052  -1.44427  -0.84471
H    -2.68849  -1.86704   0.85918
H     1.44125  -1.71080  -0.24036
H    -0.67650  -1.14371  -2.41954
H     1.02116  -1.62662  -2.66078
H    -0.19399  -2.82969  -2.18517
28

C     1.66633   0.78504   1.84224
C     1.91102   0.63332   0.36795
O     3.04533   0.44557  -0.06281
C     0.80645   0.80662  -0.62565
C     1.21528   1.09614  -2.03027
N    -0.44833   1.05848  -0.28051
N    -0.97299   0.59683   0.84925
C    -2.23719   0.83920   1.08566
N    -3.35477   0.97461   1.43007
C    -0.56219  -1.71408   0.36452
C    -1.99567  -2.01596   0.02148
C     0.40913  -1.61629  -0.56805
C     0.13398  -1.79180  -2.03928
H     2.63634   0.93032   2.33609
H     1.17794  -0.10963   2.24126
H     0.99713   1.63548   2.04659
H     2.01904   0.40817  -2.35723
H     1.61414   2.10517  -2.05468
H     0.37339   1.00488  -2.72660
H    -1.08479   1.28451  -1.05092
H    -0.28871  -1.77452   1.41610
H    -2.02910  -3.08236  -0.26116
H    -2.37165  -1.44598  -0.84547
H    -2.68927  -1.86881   0.85864
H     1.43930  -1.71294  -0.23982
H    -0.67705  -1.14501  -2.42107
H     1.02088  -1.62741  -2.66104
H    -0.19300  -2.82981  -2.18058
28

C     1.66653   0.78628   1.84148
C     1.91236   0.63180   0.36739
O     3.04743   0.44617  -0.06179
C     0.80500   0.78377  -0.62724
C     1.21543   1.09067  -2.02920
N    -0.44790   1.06426  -0.27857
N    -0.97431   0.57797   0.84412
C    -2.23636   0.83129   1.08717
N    -3.35255   0.97539   1.43050
C    -0.56948  -1.69079   0.36765
C    -1.99521  -2.01515   0.02103
C     0.41137  -1.58999  -0.57077
C     0.13374  -1.78956  -2.03784
H     2.63620   0.93096   2.33619
H     1.17795  -0.10915   2.24129
H     0.99706   1.63588   2.04573
H     2.02029   0.40897  -2.35858
H     1.61188   2.10443  -2.05139
H     0.37381   1.00353  -2.72683
H    -1.08467   1.27933  -1.05176
H    -0.28942  -1.77392   1.41562
H    -2.02438  -3.08240  -0.26025
H    -2.37277  -1.44769  -0.84622
H    -2.69004  -1.87058   0.85810
H     1.43735  -1.71509  -0.23928
H    -0.67761  -1.14631  -2.42260
H     1.02061  -1.62820  -2.66131
H    -0.19201  -2.82993  -2.17599
28

C     1.66673   0.78752   1.84072
C     1.91371   0.63028   0.36682
O     3.04952   0.44677  -0.06078
C     0.80354   0.76093  -0.62883
C     1.21558   1.08519  -2.02814
N    -0.44747   1.07004  -0.27663
N    -0.97563   0.55912   0.83900
C    -2.23553   0.82337   1.08868
N    -3.35032   0.97616   1.43092
C    -0.57676  -1.66750   0.37078
C    -1.99475  -2.01434   0.02058
C     0.41360  -1.56369  -0.57348
C     0.13350  -1.78732  -2.03639
H     2.63605   0.93160   2.33628
H     1.17797  -0.10867   2.24131
H     0.99699   1.63629   2.04488
H     2.02155   0.40977  -2.35993
H     1.60963   2.10369  -2.04810
H     0.37423   1.00218  -2.72706
H    -1.08456   1.27415  -1.05260
H    -0.29013  -1.77331   1.41514
H    -2.01967  -3.08244  -0.25934
H    -2.37389  -1.44940  -0.84697
H    -2.69082  -1.87235   0.85756
H     1.43540  -1.71723  -0.23874
H    -0.67816  -1.14761  -2.42414
H     1.02033  -1.62899  -2.66158
H    -0.19102  -2.83005  -2.17140
28

C     1.66693   0.78876   1.83996
C     1.91505   0.62876   0.36625
O     3.05162   0.44737  -0.05977
C     0.80208   0.73808  -0.63043
C     1.21573   1.07972  -2.02707
N    -0.44705   1.07582  -0.27469
N    -0.97694   0.54027   0.83387
C    -2.23470   0.81546   1.09018
N    -3.34809   0.97694   1.43135
C    -0.58404  -1.64421   0.37392
C    -1.99429  -2.01354   0.02012
C     0.41583  -1.53739  -0.57620
C     0.13326  -1.78508  -2.03495
H     2.63591   0.93224   2.33637
H     1.17799  -0.10819   2.24134
H     0.99692   1.63670   2.04402
H     2.02280   0.41057  -2.36128
H     1.60737   2.10296  -2.04481
H     0.37466   1.00083  -2.72729
H    -1.08444   1.26898  -1.05344
H    -0.29084  -1.77271   1.41466
H    -2.01496  -3.08248  -0.25843
H    -2.37502  -1.45112  -0.84773
H    -2.69160  -1.87412   0.85702
H     1.43345  -1.71937  -0.23820
H    -0.67871  -1.14892  -2.42567
H     1.02006  -1.62978  -2.66184
H    -0.19002  -2.83017  -2.16682
28

C     1.66712   0.79000   1.83920
C     1.91639   0.62725   0.36568
O     3.05372   0.44797  -0.05876
C     0.80062   0.71524  -0.63202
C     1.21588   1.07424  -2.02600
N    -0.44662   1.08159  -0.27274
N    -0.97826   0.52142   0.82874
C    -2.23386   0.80754   1.09169
N    -3.34587   0.97771   1.43177
C    -0.59132  -1.62093   0.37705
C    -1.99383  -2.01273   0.01967
C     0.41807  -1.51109  -0.57891
C     0.13302  -1.78284  -2.03351
H     2.63577   0.93288   2.33647
H     1.17800  -0.10771   2.24137
H     0.99684   1.63711   2.04316
H     2.02405   0.41136  -2.36263
H     1.60512   2.10222  -2.04152
H     0.37508   0.99948  -2.72752
H    -1.08433   1.26380  -1.05427
H    -0.29154  -1.77210   1.41418
H    -2.01024  -3.08252  -0.25752
H    -2.37614  -1.45283  -0.84848
H    -2.69237  -1.87589   0.85647
H     1.43150  -1.72151  -0.23766
H    -0.67926  -1.15022  -2.42720
H     1.01978  -1.63056  -2.66211
H    -0.18903  -2.83028  -2.16223
28

C     1.66732   0.79124   1.83844
C     1.91773   0.62573   0.36511
O     3.05582   0.44857  -0.05775
C     0.79917   0.69240  -0.63361
C     1.21603   1.06877  -2.02494
N    -0.44620   1.08737  -0.27080
N    -0.97958   0.50257   0.82362
C    -2.23303   0.79963   1.09320
N    -3.34364   0.97848   1.43219
C    -0.59860  -1.59764   0.38019
C    -1.99337  -2.01192   0.01922
C     0.42030  -1.48479  -0.58163
C     0.13278  -1.78060  -2.03206
H     2.63563   0.93352   2.33656
H     1.17802  -0.10723   2.24140
H     0.99677   1.63752   2.04230
H     2.02530   0.41216  -2.36398
H     1.60287   2.10148  -2.03823
H     0.37550   0.99813  -2.72775
H    -1.08421   1.25862  -1.05511
H    -0.29225  -1.77150   1.41370
H    -2.00553  -3.08256  -0.25661
H    -2.37727  -1.45454  -0.84923
H    -2.69315  -1.87765   0.85593
H     1.42955  -1.72366  -0.23712
H    -0.67982  -1.15152  -2.42873
H     1.01951  -1.63135  -2.66238
H    -0.18804  -2.83040  -2.15764
28

C     1.66752   0.79248   1.83767
C     1.91907   0.62421   0.36454
O     3.05791   0.44917  -0.05674
C     0.79771   0.66955  -0.63520
C     1.21618   1.06329  -2.02387
N    -0.44577   1.09315  -0.26886
N    -0.98089   0.48372   0.81849
C    -2.23220   0.79171   1.09470
N    -3.34142   0.97926   1.43262
C    -0.60588  -1.57435   0.38332
C    -1.99291  -2.01111   0.01877
C     0.42253  -1.45849  -0.58434
C     0.13254  -1.77836  -2.03062
H     2.63548   0.93416   2.33665
H     1.17804  -0.10675   2.24142
H     0.99670   1.63793   2.04144
H     2.02656   0.41296  -2.36533
H     1.60061   2.10074  -2.03494
H     0.37592   0.99679  -2.72798
H    -1.08410   1.25344  -1.05595
H    -0.29296  -1.77089   1.41322
H    -2.00081  -3.08260  -0.25570
H    -2.37839  -1.45626  -0.84999
H    -2.69393  -1.87942   0.85539
H     1.42761  -1.72580  -0.23658
H    -0.68037  -1.15282  -2.43027
H     1.01923  -1.63214  -2.66265
H    -0.18705  -2.83052  -2.15306
28

C     1.66772   0.79372   1.83691
C     1.92041   0.62269   0.36397
O     3.06001   0.44977  -0.05573
C     0.79625   0.64671  -0.63679
C     1.21633   1.05781  -2.02280
N    -0.44534   1.09893  -0.26692
N    -0.98221   0.46487   0.81336
C    -2.23136   0.78379   1.09621
N    -3.33919   0.98003   1.43304
C    -0.61317  -1.55106   0.38646
C    -1.99245  -2.01030   0.01832
C     0.42476  -1.43219  -0.58706
C     0.13230  -1.77612  -2.02918
H     2.63534   0.93480   2.33675
H     1.17806  -0.10627   2.24145
H     0.99663   1.63833   2.04058
H     2.02781   0.41376  -2.36668
H     1.59836   2.10000  -2.03165
H     0.37634   0.99544  -2.72821
H    -1.08398   1.24826  -1.05679
H    -0.29366  -1.77029   1.41274
H    -1.99610  -3.08265  -0.25479
H    -2.37951  -1.45797  -0.85074
H    -2.69470  -1.88119   0.85485
H     1.42566  -1.72794  -0.23604
H    -0.68092  -1.15412  -2.43180
H     1.01896  -1.63293  -2.66291
H    -0.18606  -2.83064  -2.14847
28

C     1.66791   0.79496   1.83615
C     1.92175   0.62117   0.36341
O     3.06211   0.45037  -0.05471
C     0.79479   0.62386  -0.63838
C     1.21648   1.05234  -2.02174
N    -0.44492   1.10471  -0.26498
N    -0.98353   0.44602   0.80824
C    -2.23053   0.77588   1.09772
N    -3.33696   0.98081   1.43347
C    -0.62045  -1.52777   0.38959
C    -1.99199  -2.00949   0.01786
C     0.42700  -1.40589  -0.58978
C     0.13206  -1.77387  -2.02774
H     2.63520   0.93544   2.33684
H     1.17807  -0.10579   2.24148
H     0.99655   1.63874   2.03972
H     2.02906   0.41456  -2.36803
H     1.59610   2.09927  -2.02836
H     0.37677   0.99409  -2.72844
H    -1.08387   1.24308  -1.05763
H    -0.29437  -1.76968   1.41226
H    -1.99139  -3.08269  -0.25388
H    -2.38064  -1.45968  -0.85150
H    -2.69548  -1.88296   0.85430
H     1.42371  -1.73008  -0.23550
H    -0.68147  -1.15542  -2.43333
H     1.01868  -1.63372  -2.66318
H    -0.18507  -2.83076  -2.14388
28

C     1.66811   0.79620   1.83539
C     1.92309   0.61965   0.36284
O     3.06421   0.45098  -0.05370
C     0.79334   0.60102  -0.63998
C     1.21663   1.04686  -2.02067
N    -0.44449   1.11049  -0.26304
N    -0.98484   0.42717   0.80311
C    -2.22970   0.76796   1.09922
N    -3.33474   0.98158   1.43389
C    -0.62773  -1.50449   0.39272
C    -1.99153  -2.00869   0.01741
C     0.42923  -1.37959  -0.59249
C     0.13182  -1.77163  -2.02629
H     2.63505   0.93608   2.33693
H     1.17809  -0.10532   2.24150
H     0.99648   1.63915   2.03886
H     2.03032   0.41536  -2.36937
H     1.59385   2.09853  -2.02506
H     0.37719   0.99274  -2.72867
H    -1.08375   1.23790  -1.05847
H    -0.29508  -1.76907   1.41178
H    -1.98667  -3.08273  -0.25297
H    -2.38176  -1.46139  -0.85225
H    -2.69626  -1.88473   0.85376
H     1.42176  -1.73222  -0.23496
H    -0.68203  -1.15672  -2.43487
H     1.01841  -1.63451  -2.66345
H    -0.18408  -2.83088  -2.13930
28

C     1.66831   0.79744   1.83463
C     1.92443   0.61813   0.36227
O     3.06631   0.45158  -0.05269
C     0.79188   0.57817  -0.64157
C     1.21678   1.04139  -2.01960
N    -0.44407   1.11626  -0.26110
N    -0.98616   0.40832   0.79798
C    -2.22887   0.76005   1.10073
N    -3.33251   0.98235   1.43432
C    -0.63501  -1.48120   0.39586
C    -1.99107  -2.00788   0.01696
C     0.43146  -1.35329  -0.59521
C     0.13158  -1.76939  -2.02485
H     2.63491   0.93672   2.33703
H     1.17811  -0.10484   2.24153
H     0.99641   1.63956   2.03800
H     2.03157   0.41615  -2.37072
H     1.59159   2.09779  -2.02177
H     0.37761   0.99139  -2.72890
H    -1.08364   1.23272  -1.05931
H    -0.29579  -1.76847   1.41130
H    -1.98196  -3.08277  -0.25206
H    -2.38289  -1.46311  -0.85300
H    -2.69703  -1.88650   0.85322
H     1.41981  -1.73437  -0.23442
H    -0.68258  -1.15802  -2.43640
H     1.01813  -1.63530  -2.66371
H    -0.18309  -2.83100  -2.13471
28

C     1.66851   0.79868   1.83387
C     1.92577   0.61661   0.36170
O     3.06840   0.45218  -0.05168
C     0.79042   0.55533  -0.64316
C     1.21693   1.03591  -2.01854
N    -0.44364   1.12204  -0.25916
N    -0.98748   0.38947   0.79286
C    -2.22803   0.75213   1.10224
N    -3.33028   0.98313   1.43474
C    -0.64229  -1.45791   0.39899
C    -1.99061  -2.00707   0.01651
C     0.43370  -1.32698  -0.59792
C     0.13134  -1.76715  -2.02341
H     2.63477   0.93736   2.33712
H     1.17812  -0.10436   2.24156
H     0.99634   1.63997   2.03714
H     2.03282   0.41695  -2.37207
H     1.58934   2.09705  -2.01848
H     0.37803   0.99004  -2.72913
H    -1.08352   1.22754  -1.06015
H    -0.29649  -1.76786   1.41082
H    -1.97724  -3.08281  -0.25115
H    -2.38401  -1.46482  -0.85376
H    -2.69781  -1.88827   0.85268
H     1.41786  -1.73651  -0.23388
H    -0.68313  -1.15933  -2.43793
H     1.01786  -1.63609  -2.66398
H    -0.18210  -2.83112  -2.13012
28

C     1.66871   0.79992   1.83311
C     1.92711   0.61509   0.36113
O     3.07050   0.45278  -0.05067
C     0.78897   0.53249  -0.64475
C     1.21708   1.03044  -2.01747
N    -0.44321   1.12782  -0.25722
N    -0.98879   0.37062   0.78773
C    -2.22720   0.74421   1.10374
N    -3.32806   0.98390   1.43517
C    -0.64957  -1.43462   0.40213
C    -1.99015  -2.00626   0.01606
C     0.43593  -1.30068  -0.60064
C     0.13110  -1.76491  -2.02196
H     2.63463   0.93800   2.33722
H     1.17814  -0.10388   2.24159
H     0.99627   1.64038   2.03628
H     2.03408   0.41775  -2.37342
H     1.58708   2.09631  -2.01519
H     0.37846   0.98870  -2.72936
H    -1.08341   1.22236  -1.06099
H    -0.29720  -1.76726   1.41034
H    -1.97253  -3.08285  -0.25024
H    -2.38514  -1.46653  -0.85451
H    -2.69859  -1.89004   0.85214
H     1.41591  -1.73865  -0.23334
H    -0.68368  -1.16063  -2.43947
H     1.01758  -1.63688  -2.66425
H    -0.18110  -2.83123  -2.12553
28

C     1.66890   0.80117   1.83235
C     1.92845   0.61357   0.36056
O     3.07260   0.45338  -0.04966
C     0.78751   0.50964  -0.64634
C     1.21723   1.02496  -2.01641
N    -0.44279   1.13360  -0.25527
N    -0.99011   0.35177   0.78260
C    -2.22637   0.73630   1.10525
N    -3.32583   0.98468   1.43559
C    -0.65685  -1.41134   0.40526
C    -1.98969  -2.00545   0.01561
C     0.43816  -1.27438  -0.60335
C     0.13086  -1.76267  -2.02052
H     2.63448   0.93864   2.33731
H     1.17816  -0.10340   2.24161
H     0.99619   1.64079   2.03542
H     2.03533   0.41855  -2.37477
H     1.58483   2.09558  -2.01190
H     0.37888   0.98735  -2.72959
H    -1.08329   1.21718  -1.06183
H    -0.29791  -1.76665   1.40987
H    -1.96781  -3.08289  -0.24933
H    -2.38626  -1.46824  -0.85526
H    -2.69936  -1.89181   0.85159
H     1.41396  -1.74079  -0.23280
H    -0.68423  -1.16193  -2.44100
H     1.01731  -1.63767  -2.66451
H    -0.18011  -2.83135  -2.12095
28

C     1.66910   0.80241   1.83159
C     1.92980   0.61205   0.36000
O     3.07470   0.45398  -0.04864
C     0.78605   0.48680  -0.64794
C     1.21738   1.01948  -2.01534
N    -0.44236   1.13938  -0.25333
N    -0.99143   0.33292   0.77748
C    -2.22553   0.72838   1.10676
N    -3.32361   0.98545   1.43602
C    -0.66414  -1.38805   0.40840
C    -1.98923  -2.00464   0.01515
C     0.44040  -1.24808  -0.60607
C     0.13062  -1.76043  -2.01908
H     2.63434   0.93928   2.33740
H     1.17817  -0.10292   2.24164
H     0.99612   1.64119   2.03456
H     2.03658   0.41935  -2.37612
H     1.58258   2.09484  -2.00861
H     0.37930   0.98600  -2.72982
H    -1.08318   1.21200  -1.06266
H    -0.29862  -1.76605   1.40939
H    -1.96310  -3.08293  -0.24842
H    -2.38738  -1.46996  -0.85602
H    -2.70014  -1.89358   0.85105
H     1.41201  -1.74294  -0.23226
H    -0.68479  -1.16323  -2.44253
H     1.01703  -1.63845  -2.66478
H    -0.17912  -2.83147  -2.11636
