12

N 3.312006874 -0.910128743 -0.866590342
C 2.061297610 -0.157108655 1.157402487
N 0.602350826 -1.986310972 2.249114428
C -1.531167543 -1.944181965 1.051770633
C -1.839800335 -0.039567539 -0.890153280
C -0.856494933 2.336429072 0.068334991
N 1.275364029 2.318439919 1.284187217
H 4.129050165 0.616905818 -1.705693577
H 0.914804342 -0.834050127 -1.845954190
H -2.951424812 -3.365658674 1.463316549
H -3.506882707 -0.045803238 -2.070692213
H -1.806012977 4.126784629 -0.244742153

