19

C 3.208113001 -2.858893540 -1.891447193
C 1.379295357 -2.663203670 0.321533083
O 1.249881167 4.189519171 0.674316208
C -1.098970549 3.358382095 1.613372576
C -2.725533130 2.253916883 -0.474392859
O -1.471406240 0.293472388 -1.781405568
C -1.308017628 -2.053512562 -0.497099657
H 3.248350769 -1.107512848 -2.980112801
H 2.651347944 -4.372925784 -3.180504499
H 5.125897760 -3.251503134 -1.245037723
H 2.030622857 -1.225780923 1.658120667
H 1.336050751 -4.450616450 1.361804978
H -0.832053272 1.960913676 3.127589503
H -2.050576419 4.992437383 2.441839734
H -4.532100477 1.586367048 0.297209038
H -3.115110659 3.704672990 -1.888834325
H 1.786272406 2.966400702 -0.559421407
H -1.980557096 -3.506337994 -1.809701174
H -2.574468613 -2.061428776 1.141930203

