19

C 3.697294441 -1.918660364 -1.744852312
C 2.394012807 -2.042725967 0.739601464
O 1.422242010 2.291662708 0.357268050
C -0.887276871 2.889094217 1.229182902
C -2.901249465 2.630546840 -0.830479357
O -2.679000930 0.187436851 -2.016127259
C -2.296311793 -1.761607172 -0.471827537
H 4.135719235 0.028143124 -2.219305170
H 2.564883808 -2.754409373 -3.253512140
H 5.442873239 -3.027497891 -1.611126637
H 3.119442213 -0.855116284 2.229520633
H 1.873304782 -3.941778174 1.360267421
H -1.514628339 1.633169271 2.810779734
H -1.029342985 4.810497122 2.054943519
H -4.830149215 2.855415008 -0.103661720
H -2.571919485 3.969418291 -2.357474763
H -0.118241335 -1.493274226 0.399691305
H -2.200112337 -3.531493215 -1.514974556
H -3.451589188 -1.867991723 1.236560299

