11

O 5.917204266 0.433879172 1.324961838
C 3.841501860 1.122231245 1.172131995
N -0.272665842 -2.493401762 -0.681873279
C -1.981020173 -0.393179913 -0.369480064
C -0.750203754 1.953179934 0.631197968
C 1.676054811 2.268196126 1.136146205
H -1.208227162 -4.070958831 -1.205534341
H -3.458430545 -0.924072503 0.982049339
H -2.994236009 0.174861687 -2.101457087
H -2.059978600 3.516876732 0.919562162
H 1.055546646 -2.126985076 -2.005360639

