11

O 4.026249461 -1.684121144 1.848097442
C 2.460567033 -0.481784749 0.786507093
N 0.459710405 -1.642359652 -0.840980773
C -1.874937260 -0.408330453 0.051004974
C -0.699509280 2.233257490 0.144456391
C 1.873642609 2.281714679 0.528719424
H 0.517223313 -3.537020475 -1.125942459
H -2.505675495 -1.143390073 1.874981555
H -3.380530252 -0.577901927 -1.341195833
H -1.856340371 3.901765944 -0.135540720
H 0.776798228 0.682490917 -1.877845209

