10

O 4.196948951 -3.776917144 0.368213929
C 2.763460897 -2.213656571 1.691985013
C -0.855175130 5.058522353 -0.215860562
N -1.094533302 2.956868073 -0.869712339
N -1.042513545 0.782054710 -1.720635755
C -1.415603553 -1.171063903 0.088308187
N 0.359980241 -2.309013946 1.170058002
H 3.245421712 -4.685905041 -0.912813080
H -1.958983094 6.727407807 0.096475243
H -3.360478802 -1.757980561 0.409694532

