18

C 5.609552922 1.274694802 -0.458016492
O 3.010454772 1.872908110 -0.749453098
C 1.551084633 -0.076261844 -1.389325815
C -0.630560639 -1.449438570 1.624944276
N -2.400740723 -1.268056402 -0.413755384
C -5.017264869 -0.860641503 0.228084784
C -1.161235116 0.692521432 -1.872201863
H 6.629005780 3.056893601 -0.336039906
H 6.274577101 0.172241752 -2.068038017
H 5.896151659 0.194931958 1.281258728
H 1.511469511 -1.879614786 0.017282377
H -0.659269830 -3.228042015 2.669812439
H -0.491243774 0.211148001 2.867773061
H -5.320227840 0.928273894 1.252926026
H -5.684518679 -2.409270002 1.417130943
H -6.161810642 -0.829748203 -1.489100822
H -1.535409279 2.594258996 -1.071149699
H -1.672187618 0.716198586 -3.874875066

