11

O 2.775715695 1.910996428 0.667025096
C 1.435308275 0.315263161 -0.939021314
H 1.179007405 1.118038415 -2.809410929
C 1.886870824 -2.551940432 -0.770511601
H 3.239770486 -3.140719698 0.650993038
H 1.899260152 -3.640082359 -2.505986431
C -0.476625514 -1.381276735 0.113525335
C -3.092366217 -1.708763324 0.649115179
H -5.037045615 -2.057623869 0.125460108
N -1.815076557 -1.334900305 2.607888306
H 1.877230859 2.032341695 2.239380864

