16

C 3.464068675 1.379035595 0.917584828
C 2.114086750 0.011739905 -1.251836486
C -0.624852154 -0.378663510 -0.748028490
C -1.681815584 -2.900448863 -0.104410675
C -3.706076338 1.710546848 0.645759384
O -2.052170686 1.596225900 -1.332138130
H 3.379881357 0.274004354 2.657242094
H 2.585382990 3.209525250 1.278314799
H 5.447890103 1.702199039 0.457946138
H 3.022420669 -1.808441747 -1.606038379
H 2.265174889 1.161787124 -2.968593729
H -3.715956714 -2.865932071 -0.474817197
H -0.721599480 -4.354277759 -1.234075687
H -1.473491193 -3.449574495 1.874508330
H -2.882343530 2.125655294 2.460575613
H -5.600747347 2.300998370 0.166319804

