11

N -3.263707912 -0.456885699 0.052022648
C -0.859388652 0.603678604 0.241728645
C 1.112267947 -1.272479362 0.407626359
C 3.674708717 -0.804736582 -0.344959205
N 4.180820610 1.483029208 -0.196475619
N -0.392275207 2.980440290 0.356440331
H -3.427791924 -2.035598752 -0.991358300
H -4.687254891 0.774634303 -0.206151697
H 0.773166591 -2.920944153 1.582721010
H 5.068044154 -2.329121596 -0.517910304
H -1.937698504 4.022375314 -0.137668003

