16

N 2.597384811 1.020731919 2.758456033
C 2.844976237 -1.299304686 1.724343360
O 4.104108067 -2.992556930 2.617027342
C 1.335869621 -1.645275178 -0.706005762
C -2.732373976 -0.600500878 -0.500963315
C -2.603646381 1.818098720 -1.838057025
O -0.575331371 3.146081569 -1.255957355
H 3.619379351 1.430959959 4.304249206
H 1.631749407 2.386151811 1.819318217
H 2.577423199 -2.054733098 -2.305725842
H 0.221400596 -3.369404092 -0.481578543
H -3.842705162 -2.178669482 -1.215971260
H -2.458676325 -0.534869575 1.530346608
H -3.063725396 1.629893658 -3.864838334
H -4.431695473 2.508021496 -0.926502162
H 0.664043921 0.412728582 -1.216907147

