15

C 5.423470514 -0.451187154 0.324807317
N 2.752015714 0.053652764 0.192441035
C 1.262553992 -1.826382524 0.145274302
C -1.456341815 -1.600070189 -0.035645602
C -2.550695083 0.665341747 -0.380740054
N -5.238732570 1.447990738 -0.408763975
C -2.922962834 3.142496003 -0.821693832
H 5.880449320 -2.479073556 0.389691328
H 6.368020789 0.379651307 -1.313922152
H 6.222693650 0.453830768 2.001359352
H 2.000372310 -3.769811188 0.232365071
H -2.617198665 -3.279689798 0.032646568
H -6.141752844 1.306475290 1.274097270
H -6.336121456 1.089555631 -1.928090211
H -2.641050486 4.760921177 0.383987227

