13

O -1.895644652 2.726992981 0.538714960
C -2.514084758 0.232271076 0.777875505
C -2.496558379 -0.985808646 -1.810689010
C 0.086301241 -1.541363939 -0.890484436
O 1.964598623 0.011296556 -1.889901623
C 3.788295355 0.760715242 -0.291363775
O 3.950753541 0.177933191 1.880030450
H -1.784712967 3.410523569 2.214599166
H -0.497598110 -0.979762789 1.518357430
H -3.739068027 -2.597337870 -2.041226602
H -2.568486155 0.324752194 -3.387184828
H 0.672339365 -3.473381680 -0.520529937
H 5.109969882 1.989801428 -1.309687805

