12

C -2.460774771 1.623067892 0.008768764
C -1.768805781 -1.035446064 0.689545983
O -0.915656325 -2.633739740 -1.282455170
C 0.843192395 -1.978154252 0.638366908
C 2.940407274 -0.376467932 -0.063396022
C 4.710475090 0.928234379 -0.593602452
H -1.065023452 2.441575702 -1.264126319
H -2.569550789 2.784006245 1.710767303
H -4.302915475 1.658800043 -0.917299895
H -3.034895677 -1.976342647 2.011289995
H 1.344099756 -3.524835616 1.893278167
H 6.279447757 2.089301953 -1.080044073

