12

C -2.672163353 1.300807434 -0.199127301
C -1.327742627 -1.010666387 0.708331316
O 0.188410608 -2.355445783 -1.030695330
C 1.427979502 -1.125045160 1.035118914
C 2.885035293 1.728406555 1.088466185
C 3.872101401 0.523878059 -0.679819846
H -1.446114259 2.451343866 -1.384564121
H -3.269604745 2.434193071 1.416515063
H -4.344437993 0.764995112 -1.280245173
H -2.398489285 -2.235289229 1.969971530
H 2.218767335 -2.406946300 2.419012164
H 4.787188181 -0.401362258 -2.229356472

