12

O -2.836350109 2.687997954 2.112011377
C -1.881229481 1.497635147 0.431921604
C -2.552997677 0.269461509 -1.735486981
C 0.601391204 -1.430368210 1.439806220
C 2.616121786 -1.028377524 -0.438658232
C 1.375923065 0.983955014 1.126460735
H -4.424420538 0.613093976 -2.493896776
H -1.195956434 -0.645675632 -2.934633121
H -0.375753653 -2.759533971 2.627408836
H 2.259631359 -1.153432777 -2.454922289
H 4.497212429 -1.641772873 0.116530056
H 1.967121842 2.587496517 2.228291441

