14

C 2.069954785 -1.031600093 2.374993885
C 2.337201706 -1.098959267 -0.505709911
C -0.576901355 -1.214573146 -0.485497041
O -0.637690707 -1.022462662 2.217135462
C -3.142030998 2.730527922 -0.681504707
C -1.953101246 0.851219744 -1.822263677
H 2.765630813 -2.706492098 3.365286341
H 2.787464709 0.661682633 3.313780193
H 3.289602772 -2.745616516 -1.285163847
H 3.103477807 0.615238248 -1.344553309
H -1.322105649 -3.049135217 -1.101214958
H -4.111181123 4.180701614 -1.751163676
H -3.185481206 2.851267910 1.361786515
H -1.926388758 0.722458625 -3.874010233

