13

O 1.926617377 4.086822893 1.875551913
C 1.535995831 2.215958219 0.886885018
C 3.383727158 -1.043366076 -0.476430456
O 1.856621165 -2.247693146 -1.759033856
C -2.021057517 -0.836596042 -1.546599822
C -2.669119306 -0.869889633 1.156827424
C -1.976714508 1.400362591 -0.416927516
H 3.876875738 -1.641337102 1.456249257
H 4.760490603 0.233381233 -1.379600718
H -2.339352686 -1.828851035 -3.284507239
H -1.261030551 -1.543202264 2.508471987
H -4.611320744 -1.231154680 1.726488010
H -2.595334288 3.308650947 -0.756038396

