12

N 5.277752995 2.911745665 0.552888907
C 4.225542642 1.134370165 -0.117832380
C 2.904485810 -1.073811567 -0.952550374
O -3.938761585 -2.280542822 1.941849004
C -3.530102793 -0.104509810 1.465319753
C -1.354147354 0.821124665 -0.130910343
C 0.396248186 -1.226651066 -0.953272740
H 4.063595286 -2.634085125 -1.589483093
H -4.793119446 1.406532679 2.178403730
H -2.200674757 1.743115843 -1.787286226
H -0.371379976 2.325910649 0.891091416
H -0.468938656 -2.970175449 -1.592033108

