29

C    -3.71648  -0.68402   1.35364
N    -2.70102   0.09467   0.66948
C    -2.69470   0.19646  -0.66980
O    -3.57261  -0.25836  -1.40539
C    -1.50994   0.86483  -1.31052
N    -0.56335   1.45373  -0.61325
C     0.48840   1.04237  -0.02966
C     1.21849   1.91176   1.00955
C     2.11123   3.00364   0.51969
O     1.03463   1.61458   2.16767
C     0.77566  -0.57077  -0.32762
C     1.96222  -1.01520   0.51632
O     1.97649  -1.93499   1.30239
O     2.96494  -0.14756   0.34689
C     4.06923  -0.20917   1.26461
C    -0.01724  -1.17341  -1.15142
C    -0.76554  -1.93301  -2.01171
N    -1.44959  -2.53390  -2.75645
H    -4.72091  -0.35593   1.06936
H    -3.62859  -1.76347   1.10810
H    -3.58476  -0.56328   2.43392
H    -1.91999   0.45211   1.20271
H    -1.66819   1.19436  -2.36431
H     1.56486   3.83282   0.05879
H     2.81106   2.59855  -0.22071
H     2.72106   3.42461   1.38613
H     4.74880   0.60613   0.94707
H     3.69666   0.00794   2.28270
H     4.57273  -1.16471   1.23606
29

C    -3.71586  -0.68508   1.35347
N    -2.70112   0.09408   0.66899
C    -2.69677   0.19863  -0.67039
O    -3.57545  -0.25779  -1.40477
C    -1.51758   0.87366  -1.31034
N    -0.56511   1.44793  -0.61485
C     0.48361   1.06466  -0.02612
C     1.21675   1.92000   1.01219
C     2.11559   3.00692   0.52284
O     1.03583   1.61785   2.17046
C     0.78653  -0.60009  -0.33510
C     1.96606  -1.01871   0.51784
O     1.97893  -1.93194   1.31137
O     2.96566  -0.14942   0.34558
C     4.06895  -0.20642   1.26491
C    -0.01044  -1.18885  -1.15605
C    -0.76874  -1.93514  -2.01688
N    -1.45645  -2.53140  -2.76100
H    -4.72083  -0.35626   1.06963
H    -3.62851  -1.76377   1.10797
H    -3.58437  -0.56373   2.43387
H    -1.92041   0.45271   1.20260
H    -1.67013   1.19770  -2.36401
H     1.56755   3.83483   0.05985
H     2.81181   2.59858  -0.21971
H     2.72297   3.42442   1.38712
H     4.74848   0.60692   0.94667
H     3.69619   0.00938   2.28250
H     4.57297  -1.16377   1.23702
29

C    -3.71523  -0.68614   1.35331
N    -2.70122   0.09349   0.66850
C    -2.69884   0.20081  -0.67098
O    -3.57829  -0.25722  -1.40415
C    -1.52522   0.88249  -1.31015
N    -0.56686   1.44214  -0.61646
C     0.47882   1.08695  -0.02259
C     1.21501   1.92825   1.01483
C     2.11995   3.01019   0.52600
O     1.03703   1.62112   2.17326
C     0.79739  -0.62942  -0.34257
C     1.96991  -1.02222   0.51936
O     1.98138  -1.92889   1.32035
O     2.96639  -0.15128   0.34427
C     4.06868  -0.20367   1.26522
C    -0.00364  -1.20429  -1.16068
C    -0.77193  -1.93727  -2.02205
N    -1.46332  -2.52890  -2.76554
H    -4.72076  -0.35659   1.06990
H    -3.62843  -1.76407   1.10785
H    -3.58398  -0.56419   2.43382
H    -1.92082   0.45331   1.20248
H    -1.67207   1.20105  -2.36371
H     1.57025   3.83684   0.06091
H     2.81256   2.59860  -0.21871
H     2.72489   3.42422   1.38811
H     4.74815   0.60771   0.94627
H     3.69573   0.01082   2.28230
H     4.57321  -1.16282   1.23797
29

C    -3.71461  -0.68720   1.35314
N    -2.70132   0.09290   0.66801
C    -2.70090   0.20299  -0.67157
O    -3.58113  -0.25665  -1.40353
C    -1.53285   0.89132  -1.30996
N    -0.56862   1.43634  -0.61806
C     0.47402   1.10924  -0.01905
C     1.21327   1.93649   1.01746
C     2.12430   3.01347   0.52916
O     1.03823   1.62439   2.17606
C     0.80825  -0.65874  -0.35005
C     1.97375  -1.02573   0.52088
O     1.98382  -1.92583   1.32934
O     2.96711  -0.15314   0.34296
C     4.06840  -0.20092   1.26552
C     0.00316  -1.21972  -1.16531
C    -0.77513  -1.93940  -2.02722
N    -1.47019  -2.52640  -2.77008
H    -4.72068  -0.35691   1.07016
H    -3.62834  -1.76437   1.10772
H    -3.58359  -0.56465   2.43377
H    -1.92123   0.45390   1.20237
H    -1.67401   1.20440  -2.36341
H     1.57295   3.83884   0.06197
H     2.81330   2.59862  -0.21772
H     2.72681   3.42403   1.38910
H     4.74783   0.60850   0.94588
H     3.69527   0.01225   2.28210
H     4.57346  -1.16188   1.23892
29

C    -3.71399  -0.68826   1.35297
N    -2.70142   0.09231   0.66752
C    -2.70297   0.20516  -0.67216
O    -3.58396  -0.25608  -1.40292
C    -1.54049   0.90015  -1.30977
N    -0.57038   1.43054  -0.61967
C     0.46923   1.13153  -0.01552
C     1.21152   1.94473   1.02010
C     2.12866   3.01675   0.53232
O     1.03943   1.62766   2.17886
C     0.81912  -0.68807  -0.35753
C     1.97760  -1.02923   0.52240
O     1.98626  -1.92278   1.33832
O     2.96784  -0.15500   0.34164
C     4.06812  -0.19817   1.26583
C     0.00996  -1.23516  -1.16994
C    -0.77832  -1.94152  -2.03239
N    -1.47706  -2.52391  -2.77463
H    -4.72061  -0.35724   1.07043
H    -3.62826  -1.76468   1.10759
H    -3.58320  -0.56510   2.43372
H    -1.92164   0.45450   1.20226
H    -1.67594   1.20775  -2.36311
H     1.57564   3.84085   0.06303
H     2.81405   2.59865  -0.21672
H     2.72873   3.42384   1.39009
H     4.74751   0.60929   0.94548
H     3.69481   0.01369   2.28190
H     4.57370  -1.16094   1.23987
29

C    -3.71336  -0.68932   1.35280
N    -2.70151   0.09172   0.66703
C    -2.70503   0.20734  -0.67275
O    -3.58680  -0.25552  -1.40230
C    -1.54813   0.90898  -1.30959
N    -0.57213   1.42474  -0.62127
C     0.46443   1.15382  -0.01198
C     1.20978   1.95298   1.02274
C     2.13302   3.02003   0.53548
O     1.04063   1.63093   2.18166
C     0.82998  -0.71739  -0.36501
C     1.98144  -1.03274   0.52392
O     1.98871  -1.91973   1.34731
O     2.96857  -0.15686   0.34033
C     4.06785  -0.19542   1.26613
C     0.01676  -1.25059  -1.17457
C    -0.78152  -1.94365  -2.03756
N    -1.48393  -2.52141  -2.77917
H    -4.72053  -0.35756   1.07069
H    -3.62817  -1.76498   1.10747
H    -3.58281  -0.56556   2.43367
H    -1.92205   0.45510   1.20214
H    -1.67788   1.21110  -2.36281
H     1.57834   3.84285   0.06409
H     2.81480   2.59867  -0.21572
H     2.73065   3.42364   1.39107
H     4.74718   0.61009   0.94508
H     3.69435   0.01513   2.28170
H     4.57394  -1.16000   1.24082
29

C    -3.71274  -0.69037   1.35263
N    -2.70161   0.09113   0.66653
C    -2.70710   0.20952  -0.67334
O    -3.58964  -0.25495  -1.40168
C    -1.55577   0.91781  -1.30940
N    -0.57389   1.41895  -0.62287
C     0.45964   1.17611  -0.00845
C     1.20804   1.96122   1.02537
C     2.13737   3.02330   0.53864
O     1.04182   1.63420   2.18445
C     0.84084  -0.74672  -0.37249
C     1.98529  -1.03625   0.52544
O     1.99115  -1.91667   1.35629
O     2.96929  -0.15872   0.33902
C     4.06757  -0.19266   1.26643
C     0.02356  -1.26603  -1.17920
C    -0.78471  -1.94578  -2.04273
N    -1.49079  -2.51891  -2.78371
H    -4.72045  -0.35789   1.07096
H    -3.62809  -1.76528   1.10734
H    -3.58242  -0.56602   2.43363
H    -1.92246   0.45569   1.20203
H    -1.67982   1.21444  -2.36251
H     1.58104   3.84486   0.06515
H     2.81555   2.59869  -0.21472
H     2.73257   3.42345   1.39206
H     4.74686   0.61088   0.94468
H     3.69389   0.01657   2.28150
H     4.57418  -1.15906   1.24177
29

C    -3.71212  -0.69143   1.35247
N    -2.70171   0.09054   0.66604
C    -2.70916   0.21170  -0.67393
O    -3.59248  -0.25438  -1.40106
C    -1.56340   0.92664  -1.30921
N    -0.57565   1.41315  -0.62448
C     0.45485   1.19840  -0.00491
C     1.20630   1.96946   1.02801
C     2.14173   3.02658   0.54180
O     1.04302   1.63747   2.18725
C     0.85171  -0.77604  -0.37996
C     1.98913  -1.03976   0.52696
O     1.99359  -1.91362   1.36527
O     2.97002  -0.16058   0.33771
C     4.06729  -0.18991   1.26674
C     0.03036  -1.28146  -1.18384
C    -0.78791  -1.94791  -2.04790
N    -1.49766  -2.51641  -2.78826
H    -4.72038  -0.35821   1.07123
H    -3.62801  -1.76558   1.10722
H    -3.58203  -0.56647   2.43358
H    -1.92287   0.45629   1.20192
H    -1.68176   1.21779  -2.36221
H     1.58373   3.84686   0.06621
H     2.81630   2.59872  -0.21373
H     2.73448   3.42326   1.39305
H     4.74653   0.61167   0.94428
H     3.69343   0.01801   2.28130
H     4.57443  -1.15811   1.24272
29

C    -3.71149  -0.69249   1.35230
N    -2.70181   0.08995   0.66555
C    -2.71123   0.21387  -0.67453
O    -3.59531  -0.25381  -1.40044
C    -1.57104   0.93547  -1.30902
N    -0.57740   1.40735  -0.62608
C     0.45005   1.22069  -0.00138
C     1.20456   1.97770   1.03065
C     2.14609   3.02986   0.54496
O     1.04422   1.64074   2.19005
C     0.86257  -0.80537  -0.38744
C     1.99298  -1.04327   0.52848
O     1.99604  -1.91057   1.37426
O     2.97074  -0.16244   0.33640
C     4.06701  -0.18716   1.26704
C     0.03716  -1.29690  -1.18847
C    -0.79110  -1.95004  -2.05307
N    -1.50453  -2.51392  -2.79280
H    -4.72030  -0.35854   1.07149
H    -3.62792  -1.76588   1.10709
H    -3.58164  -0.56693   2.43353
H    -1.92328   0.45689   1.20180
H    -1.68369   1.22114  -2.36191
H     1.58643   3.84887   0.06727
H     2.81705   2.59874  -0.21273
H     2.73640   3.42306   1.39404
H     4.74621   0.61246   0.94388
H     3.69296   0.01945   2.28110
H     4.57467  -1.15717   1.24367
29

C    -3.71087  -0.69355   1.35213
N    -2.70191   0.08936   0.66506
C    -2.71329   0.21605  -0.67512
O    -3.59815  -0.25324  -1.39982
C    -1.57868   0.94430  -1.30883
N    -0.57916   1.40155  -0.62769
C     0.44526   1.24298   0.00216
C     1.20282   1.98595   1.03328
C     2.15044   3.03314   0.54812
O     1.04542   1.64401   2.19285
C     0.87343  -0.83469  -0.39492
C     1.99682  -1.04678   0.53000
O     1.99848  -1.90751   1.38324
O     2.97147  -0.16430   0.33509
C     4.06674  -0.18441   1.26735
C     0.04396  -1.31234  -1.19310
C    -0.79430  -1.95217  -2.05824
N    -1.51140  -2.51142  -2.79734
H    -4.72023  -0.35886   1.07176
H    -3.62784  -1.76618   1.10696
H    -3.58125  -0.56739   2.43348
H    -1.92369   0.45748   1.20169
H    -1.68563   1.22449  -2.36162
H     1.58913   3.85087   0.06833
H     2.81779   2.59876  -0.21173
H     2.73832   3.42287   1.39503
H     4.74589   0.61326   0.94348
H     3.69250   0.02089   2.28089
H     4.57491  -1.15623   1.24463
29

C    -3.71025  -0.69461   1.35196
N    -2.70200   0.08877   0.66457
C    -2.71536   0.21823  -0.67571
O    -3.60099  -0.25267  -1.39920
C    -1.58631   0.95313  -1.30865
N    -0.58092   1.39576  -0.62929
C     0.44046   1.26527   0.00569
C     1.20108   1.99419   1.03592
C     2.15480   3.03642   0.55128
O     1.04662   1.64728   2.19565
C     0.88430  -0.86402  -0.40240
C     2.00067  -1.05029   0.53152
O     2.00092  -1.90446   1.39223
O     2.97219  -0.16616   0.33378
C     4.06646  -0.18166   1.26765
C     0.05077  -1.32777  -1.19773
C    -0.79749  -1.95430  -2.06341
N    -1.51827  -2.50892  -2.80189
H    -4.72015  -0.35919   1.07203
H    -3.62776  -1.76648   1.10684
H    -3.58085  -0.56784   2.43343
H    -1.92410   0.45808   1.20158
H    -1.68757   1.22784  -2.36132
H     1.59182   3.85288   0.06939
H     2.81854   2.59879  -0.21074
H     2.74024   3.42268   1.39602
H     4.74556   0.61405   0.94308
H     3.69204   0.02233   2.28069
H     4.57515  -1.15529   1.24558
29

C    -3.70963  -0.69567   1.35179
N    -2.70210   0.08818   0.66408
C    -2.71742   0.22041  -0.67630
O    -3.60383  -0.25210  -1.39858
C    -1.59395   0.96196  -1.30846
N    -0.58267   1.38996  -0.63090
C     0.43567   1.28756   0.00923
C     1.19933   2.00243   1.03856
C     2.15916   3.03969   0.55444
O     1.04782   1.65055   2.19844
C     0.89516  -0.89334  -0.40988
C     2.00451  -1.05380   0.53304
O     2.00337  -1.90141   1.40121
O     2.97292  -0.16802   0.33247
C     4.06618  -0.17891   1.26795
C     0.05757  -1.34321  -1.20236
C    -0.80069  -1.95643  -2.06858
N    -1.52513  -2.50642  -2.80643
H    -4.72008  -0.35952   1.07229
H    -3.62767  -1.76678   1.10671
H    -3.58046  -0.56830   2.43338
H    -1.92451   0.45867   1.20146
H    -1.68951   1.23118  -2.36102
H     1.59452   3.85488   0.07045
H     2.81929   2.59881  -0.20974
H     2.74216   3.42248   1.39701
H     4.74524   0.61484   0.94268
H     3.69158   0.02377   2.28049
H     4.57540  -1.15435   1.24653
29

C    -3.70900  -0.69672   1.35163
N    -2.70220   0.08759   0.66359
C    -2.71949   0.22258  -0.67689
O    -3.60667  -0.25153  -1.39796
C    -1.60159   0.97080  -1.30827
N    -0.58443   1.38416  -0.63250
C     0.43087   1.30985   0.01276
C     1.19759   2.01067   1.04119
C     2.16351   3.04297   0.55759
O     1.04902   1.65382   2.20124
C     0.90602  -0.92267  -0.41735
C     2.00836  -1.05731   0.53457
O     2.00581  -1.89835   1.41019
O     2.97365  -0.16988   0.33116
C     4.06591  -0.17615   1.26826
C     0.06437  -1.35864  -1.20699
C    -0.80388  -1.95856  -2.07375
N    -1.53200  -2.50392  -2.81098
H    -4.72000  -0.35984   1.07256
H    -3.62759  -1.76708   1.10659
H    -3.58007  -0.56876   2.43333
H    -1.92492   0.45927   1.20135
H    -1.69144   1.23453  -2.36072
H     1.59722   3.85689   0.07151
H     2.82004   2.59883  -0.20874
H     2.74408   3.42229   1.39800
H     4.74491   0.61563   0.94228
H     3.69112   0.02521   2.28029
H     4.57564  -1.15340   1.24748
29

C    -3.70838  -0.69778   1.35146
N    -2.70230   0.08699   0.66309
C    -2.72155   0.22476  -0.67748
O    -3.60950  -0.25096  -1.39734
C    -1.60923   0.97963  -1.30808
N    -0.58619   1.37837  -0.63411
C     0.42608   1.33214   0.01630
C     1.19585   2.01892   1.04383
C     2.16787   3.04625   0.56075
O     1.05022   1.65709   2.20404
C     0.91689  -0.95199  -0.42483
C     2.01220  -1.06081   0.53609
O     2.00825  -1.89530   1.41918
O     2.97437  -0.17173   0.32985
C     4.06563  -0.17340   1.26856
C     0.07117  -1.37408  -1.21162
C    -0.80708  -1.96069  -2.07893
N    -1.53887  -2.50143  -2.81552
H    -4.71992  -0.36017   1.07282
H    -3.62750  -1.76738   1.10646
H    -3.57968  -0.56921   2.43328
H    -1.92534   0.45987   1.20124
H    -1.69338   1.23788  -2.36042
H     1.59991   3.85889   0.07257
H     2.82079   2.59885  -0.20775
H     2.74599   3.42209   1.39899
H     4.74459   0.61642   0.94188
H     3.69066   0.02665   2.28009
H     4.57588  -1.15246   1.24843
29

C    -3.70776  -0.69884   1.35129
N    -2.70240   0.08640   0.66260
C    -2.72362   0.22694  -0.67807
O    -3.61234  -0.25039  -1.39673
C    -1.61686   0.98846  -1.30790
N    -0.58795   1.37257  -0.63571
C     0.42129   1.35443   0.01984
C     1.19411   2.02716   1.04647
C     2.17223   3.04953   0.56391
O     1.05141   1.66035   2.20684
C     0.92775  -0.98132  -0.43231
C     2.01605  -1.06432   0.53761
O     2.01069  -1.89225   1.42816
O     2.97510  -0.17359   0.32854
C     4.06535  -0.17065   1.26887
C     0.07797  -1.38951  -1.21625
C    -0.81027  -1.96282  -2.08410
N    -1.54574  -2.49893  -2.82006
H    -4.71985  -0.36049   1.07309
H    -3.62742  -1.76768   1.10633
H    -3.57929  -0.56967   2.43324
H    -1.92575   0.46046   1.20113
H    -1.69532   1.24123  -2.36012
H     1.60261   3.86090   0.07363
H     2.82154   2.59888  -0.20675
H     2.74791   3.42190   1.39998
H     4.74427   0.61722   0.94148
H     3.69019   0.02809   2.27989
H     4.57612  -1.15152   1.24938
29

C    -3.70713  -0.69990   1.35112
N    -2.70249   0.08581   0.66211
C    -2.72568   0.22912  -0.67866
O    -3.61518  -0.24982  -1.39611
C    -1.62450   0.99729  -1.30771
N    -0.58970   1.36677  -0.63732
C     0.41649   1.37672   0.02337
C     1.19237   2.03540   1.04910
C     2.17658   3.05280   0.56707
O     1.05261   1.66362   2.20964
C     0.93861  -1.01065  -0.43979
C     2.01989  -1.06783   0.53913
O     2.01314  -1.88919   1.43715
O     2.97582  -0.17545   0.32723
C     4.06508  -0.16790   1.26917
C     0.08477  -1.40495  -1.22088
C    -0.81346  -1.96495  -2.08927
N    -1.55261  -2.49643  -2.82461
H    -4.71977  -0.36082   1.07336
H    -3.62734  -1.76798   1.10621
H    -3.57890  -0.57013   2.43319
H    -1.92616   0.46106   1.20101
H    -1.69725   1.24458  -2.35982
H     1.60531   3.86291   0.07469
H     2.82229   2.59890  -0.20575
H     2.74983   3.42171   1.40096
H     4.74394   0.61801   0.94108
H     3.68973   0.02953   2.27969
H     4.57637  -1.15058   1.25033
29

C    -3.70651  -0.70096   1.35096
N    -2.70259   0.08522   0.66162
C    -2.72775   0.23129  -0.67925
O    -3.61802  -0.24925  -1.39549
C    -1.63214   1.00612  -1.30752
N    -0.59146   1.36097  -0.63892
C     0.41170   1.39901   0.02691
C     1.19063   2.04364   1.05174
C     2.18094   3.05608   0.57023
O     1.05381   1.66689   2.21244
C     0.94948  -1.03997  -0.44727
C     2.02373  -1.07134   0.54065
O     2.01558  -1.88614   1.44613
O     2.97655  -0.17731   0.32592
C     4.06480  -0.16515   1.26948
C     0.09157  -1.42039  -1.22551
C    -0.81666  -1.96708  -2.09444
N    -1.55947  -2.49393  -2.82915
H    -4.71970  -0.36114   1.07362
H    -3.62725  -1.76828   1.10608
H    -3.57851  -0.57059   2.43314
H    -1.92657   0.46166   1.20090
H    -1.69919   1.24792  -2.35952
H     1.60800   3.86491   0.07575
H     2.82303   2.59892  -0.20476
H     2.75175   3.42151   1.40195
H     4.74362   0.61880   0.94068
H     3.68927   0.03097   2.27949
H     4.57661  -1.14964   1.25128
29

C    -3.70589  -0.70201   1.35079
N    -2.70269   0.08463   0.66113
C    -2.72981   0.23347  -0.67984
O    -3.62085  -0.24868  -1.39487
C    -1.63978   1.01495  -1.30733
N    -0.59322   1.35518  -0.64053
C     0.40690   1.42130   0.03044
C     1.18888   2.05189   1.05438
C     2.18530   3.05936   0.57339
O     1.05501   1.67016   2.21523
C     0.96034  -1.06930  -0.45474
C     2.02758  -1.07485   0.54217
O     2.01802  -1.88309   1.45512
O     2.97727  -0.17917   0.32461
C     4.06452  -0.16240   1.26978
C     0.09837  -1.43582  -1.23015
C    -0.81985  -1.96920  -2.09961
N    -1.56634  -2.49143  -2.83369
H    -4.71962  -0.36147   1.07389
H    -3.62717  -1.76858   1.10595
H    -3.57812  -0.57104   2.43309
H    -1.92698   0.46225   1.20079
H    -1.70113   1.25127  -2.35922
H     1.61070   3.86692   0.07681
H     2.82378   2.59895  -0.20376
H     2.75367   3.42132   1.40294
H     4.74329   0.61959   0.94028
H     3.68881   0.03241   2.27929
H     4.57685  -1.14870   1.25224
29

C    -3.70526  -0.70307   1.35062
N    -2.70279   0.08404   0.66064
C    -2.73188   0.23565  -0.68043
O    -3.62369  -0.24811  -1.39425
C    -1.64741   1.02378  -1.30714
N    -0.59497   1.34938  -0.64213
C     0.40211   1.44359   0.03398
C     1.18714   2.06013   1.05701
C     2.18966   3.06264   0.57655
O     1.05621   1.67343   2.21803
C     0.97120  -1.09862  -0.46222
C     2.03142  -1.07836   0.54369
O     2.02047  -1.88004   1.46410
O     2.97800  -0.18103   0.32330
C     4.06425  -0.15965   1.27008
C     0.10517  -1.45126  -1.23478
C    -0.82305  -1.97133  -2.10478
N    -1.57321  -2.48894  -2.83824
H    -4.71955  -0.36179   1.07416
H    -3.62709  -1.76888   1.10583
H    -3.57773  -0.57150   2.43304
H    -1.92739   0.46285   1.20067
H    -1.70307   1.25462  -2.35892
H     1.61340   3.86892   0.07787
H     2.82453   2.59897  -0.20276
H     2.75559   3.42113   1.40393
H     4.74297   0.62038   0.93988
H     3.68835   0.03385   2.27909
H     4.57710  -1.14775   1.25319
29

C    -3.70464  -0.70413   1.35045
N    -2.70289   0.08345   0.66015
C    -2.73395   0.23783  -0.68103
O    -3.62653  -0.24754  -1.39363
C    -1.65505   1.03261  -1.30696
N    -0.59673   1.34358  -0.64374
C     0.39731   1.46588   0.03751
C     1.18540   2.06837   1.05965
C     2.19401   3.06591   0.57971
O     1.05741   1.67670   2.22083
C     0.98207  -1.12795  -0.46970
C     2.03527  -1.08187   0.54521
O     2.02291  -1.87698   1.47308
O     2.97873  -0.18289   0.32199
C     4.06397  -0.15689   1.27039
C     0.11197  -1.46669  -1.23941
C    -0.82624  -1.97346  -2.10995
N    -1.58008  -2.48644  -2.84278
H    -4.71947  -0.36212   1.07442
H    -3.62700  -1.76918   1.10570
H    -3.57734  -0.57196   2.43299
H    -1.92780   0.46345   1.20056
H    -1.70500   1.25797  -2.35862
H     1.61609   3.87093   0.07893
H     2.82528   2.59899  -0.20177
H     2.75751   3.42093   1.40492
H     4.74265   0.62118   0.93949
H     3.68789   0.03529   2.27889
H     4.57734  -1.14681   1.25414
29

C    -3.70402  -0.70519   1.35028
N    -2.70298   0.08286   0.65965
C    -2.73601   0.24000  -0.68162
O    -3.62937  -0.24698  -1.39301
C    -1.66269   1.04144  -1.30677
N    -0.59849   1.33778  -0.64534
C     0.39252   1.48817   0.04105
C     1.18366   2.07661   1.06229
C     2.19837   3.06919   0.58287
O     1.05861   1.67997   2.22363
C     0.99293  -1.15727  -0.47718
C     2.03911  -1.08538   0.54673
O     2.02535  -1.87393   1.48207
O     2.97945  -0.18475   0.32068
C     4.06369  -0.15414   1.27069
C     0.11877  -1.48213  -1.24404
C    -0.82944  -1.97559  -2.11512
N    -1.58695  -2.48394  -2.84732
H    -4.71939  -0.36244   1.07469
H    -3.62692  -1.76948   1.10558
H    -3.57695  -0.57241   2.43294
H    -1.92821   0.46404   1.20045
H    -1.70694   1.26131  -2.35832
H     1.61879   3.87293   0.07998
H     2.82603   2.59902  -0.20077
H     2.75942   3.42074   1.40591
H     4.74232   0.62197   0.93909
H     3.68742   0.03673   2.27869
H     4.57758  -1.14587   1.25509
29

C    -3.70464  -0.70413   1.35045
N    -2.70289   0.08345   0.66015
C    -2.73395   0.23783  -0.68103
O    -3.62653  -0.24754  -1.39363
C    -1.65505   1.03261  -1.30696
N    -0.59673   1.34358  -0.64374
C     0.39731   1.46588   0.03751
C     1.18540   2.06837   1.05965
C     2.19401   3.06591   0.57971
O     1.05741   1.67670   2.22083
C     0.98207  -1.12795  -0.46970
C     2.03527  -1.08187   0.54521
O     2.02291  -1.87698   1.47308
O     2.97873  -0.18289   0.32199
C     4.06397  -0.15689   1.27039
C     0.11197  -1.46669  -1.23941
C    -0.82624  -1.97346  -2.10995
N    -1.58008  -2.48644  -2.84278
H    -4.71947  -0.36212   1.07442
H    -3.62700  -1.76918   1.10570
H    -3.57734  -0.57196   2.43299
H    -1.92780   0.46345   1.20056
H    -1.70500   1.25797  -2.35862
H     1.61609   3.87093   0.07893
H     2.82528   2.59899  -0.20177
H     2.75751   3.42093   1.40492
H     4.74265   0.62118   0.93949
H     3.68789   0.03529   2.27889
H     4.57734  -1.14681   1.25414
29

C    -3.70526  -0.70307   1.35062
N    -2.70279   0.08404   0.66064
C    -2.73188   0.23565  -0.68043
O    -3.62369  -0.24811  -1.39425
C    -1.64741   1.02378  -1.30714
N    -0.59497   1.34938  -0.64213
C     0.40211   1.44359   0.03398
C     1.18714   2.06013   1.05701
C     2.18966   3.06264   0.57655
O     1.05621   1.67343   2.21803
C     0.97120  -1.09862  -0.46222
C     2.03142  -1.07836   0.54369
O     2.02047  -1.88004   1.46410
O     2.97800  -0.18103   0.32330
C     4.06425  -0.15965   1.27008
C     0.10517  -1.45126  -1.23478
C    -0.82305  -1.97133  -2.10478
N    -1.57321  -2.48894  -2.83824
H    -4.71955  -0.36179   1.07416
H    -3.62709  -1.76888   1.10583
H    -3.57773  -0.57150   2.43304
H    -1.92739   0.46285   1.20067
H    -1.70307   1.25462  -2.35892
H     1.61340   3.86892   0.07787
H     2.82453   2.59897  -0.20276
H     2.75559   3.42113   1.40393
H     4.74297   0.62038   0.93988
H     3.68835   0.03385   2.27909
H     4.57710  -1.14775   1.25319
29

C    -3.70589  -0.70201   1.35079
N    -2.70269   0.08463   0.66113
C    -2.72981   0.23347  -0.67984
O    -3.62085  -0.24868  -1.39487
C    -1.63978   1.01495  -1.30733
N    -0.59322   1.35518  -0.64053
C     0.40690   1.42130   0.03044
C     1.18888   2.05189   1.05438
C     2.18530   3.05936   0.57339
O     1.05501   1.67016   2.21523
C     0.96034  -1.06930  -0.45474
C     2.02758  -1.07485   0.54217
O     2.01802  -1.88309   1.45512
O     2.97727  -0.17917   0.32461
C     4.06452  -0.16240   1.26978
C     0.09837  -1.43582  -1.23015
C    -0.81985  -1.96920  -2.09961
N    -1.56634  -2.49143  -2.83369
H    -4.71962  -0.36147   1.07389
H    -3.62717  -1.76858   1.10595
H    -3.57812  -0.57104   2.43309
H    -1.92698   0.46225   1.20079
H    -1.70113   1.25127  -2.35922
H     1.61070   3.86692   0.07681
H     2.82378   2.59895  -0.20376
H     2.75367   3.42132   1.40294
H     4.74329   0.61959   0.94028
H     3.68881   0.03241   2.27929
H     4.57685  -1.14870   1.25224
29

C    -3.70651  -0.70096   1.35096
N    -2.70259   0.08522   0.66162
C    -2.72775   0.23129  -0.67925
O    -3.61802  -0.24925  -1.39549
C    -1.63214   1.00612  -1.30752
N    -0.59146   1.36097  -0.63892
C     0.41170   1.39901   0.02691
C     1.19063   2.04364   1.05174
C     2.18094   3.05608   0.57023
O     1.05381   1.66689   2.21244
C     0.94948  -1.03997  -0.44727
C     2.02373  -1.07134   0.54065
O     2.01558  -1.88614   1.44613
O     2.97655  -0.17731   0.32592
C     4.06480  -0.16515   1.26948
C     0.09157  -1.42039  -1.22551
C    -0.81666  -1.96708  -2.09444
N    -1.55947  -2.49393  -2.82915
H    -4.71970  -0.36114   1.07362
H    -3.62725  -1.76828   1.10608
H    -3.57851  -0.57059   2.43314
H    -1.92657   0.46166   1.20090
H    -1.69919   1.24792  -2.35952
H     1.60800   3.86491   0.07575
H     2.82303   2.59892  -0.20476
H     2.75175   3.42151   1.40195
H     4.74362   0.61880   0.94068
H     3.68927   0.03097   2.27949
H     4.57661  -1.14964   1.25128
29

C    -3.70713  -0.69990   1.35112
N    -2.70249   0.08581   0.66211
C    -2.72568   0.22912  -0.67866
O    -3.61518  -0.24982  -1.39611
C    -1.62450   0.99729  -1.30771
N    -0.58970   1.36677  -0.63732
C     0.41649   1.37672   0.02337
C     1.19237   2.03540   1.04910
C     2.17658   3.05280   0.56707
O     1.05261   1.66362   2.20964
C     0.93861  -1.01065  -0.43979
C     2.01989  -1.06783   0.53913
O     2.01314  -1.88919   1.43715
O     2.97582  -0.17545   0.32723
C     4.06508  -0.16790   1.26917
C     0.08477  -1.40495  -1.22088
C    -0.81346  -1.96495  -2.08927
N    -1.55261  -2.49643  -2.82461
H    -4.71977  -0.36082   1.07336
H    -3.62734  -1.76798   1.10621
H    -3.57890  -0.57013   2.43319
H    -1.92616   0.46106   1.20101
H    -1.69725   1.24458  -2.35982
H     1.60531   3.86291   0.07469
H     2.82229   2.59890  -0.20575
H     2.74983   3.42171   1.40096
H     4.74394   0.61801   0.94108
H     3.68973   0.02953   2.27969
H     4.57637  -1.15058   1.25033
29

C    -3.70776  -0.69884   1.35129
N    -2.70240   0.08640   0.66260
C    -2.72362   0.22694  -0.67807
O    -3.61234  -0.25039  -1.39673
C    -1.61686   0.98846  -1.30790
N    -0.58795   1.37257  -0.63571
C     0.42129   1.35443   0.01984
C     1.19411   2.02716   1.04647
C     2.17223   3.04953   0.56391
O     1.05141   1.66035   2.20684
C     0.92775  -0.98132  -0.43231
C     2.01605  -1.06432   0.53761
O     2.01069  -1.89225   1.42816
O     2.97510  -0.17359   0.32854
C     4.06535  -0.17065   1.26887
C     0.07797  -1.38951  -1.21625
C    -0.81027  -1.96282  -2.08410
N    -1.54574  -2.49893  -2.82006
H    -4.71985  -0.36049   1.07309
H    -3.62742  -1.76768   1.10633
H    -3.57929  -0.56967   2.43324
H    -1.92575   0.46046   1.20113
H    -1.69532   1.24123  -2.36012
H     1.60261   3.86090   0.07363
H     2.82154   2.59888  -0.20675
H     2.74791   3.42190   1.39998
H     4.74427   0.61722   0.94148
H     3.69019   0.02809   2.27989
H     4.57612  -1.15152   1.24938
29

C    -3.70838  -0.69778   1.35146
N    -2.70230   0.08699   0.66309
C    -2.72155   0.22476  -0.67748
O    -3.60950  -0.25096  -1.39734
C    -1.60923   0.97963  -1.30808
N    -0.58619   1.37837  -0.63411
C     0.42608   1.33214   0.01630
C     1.19585   2.01892   1.04383
C     2.16787   3.04625   0.56075
O     1.05022   1.65709   2.20404
C     0.91689  -0.95199  -0.42483
C     2.01220  -1.06081   0.53609
O     2.00825  -1.89530   1.41918
O     2.97437  -0.17173   0.32985
C     4.06563  -0.17340   1.26856
C     0.07117  -1.37408  -1.21162
C    -0.80708  -1.96069  -2.07893
N    -1.53887  -2.50143  -2.81552
H    -4.71992  -0.36017   1.07282
H    -3.62750  -1.76738   1.10646
H    -3.57968  -0.56921   2.43328
H    -1.92534   0.45987   1.20124
H    -1.69338   1.23788  -2.36042
H     1.59991   3.85889   0.07257
H     2.82079   2.59885  -0.20775
H     2.74599   3.42209   1.39899
H     4.74459   0.61642   0.94188
H     3.69066   0.02665   2.28009
H     4.57588  -1.15246   1.24843
29

C    -3.70900  -0.69672   1.35163
N    -2.70220   0.08759   0.66359
C    -2.71949   0.22258  -0.67689
O    -3.60667  -0.25153  -1.39796
C    -1.60159   0.97080  -1.30827
N    -0.58443   1.38416  -0.63250
C     0.43087   1.30985   0.01276
C     1.19759   2.01067   1.04119
C     2.16351   3.04297   0.55759
O     1.04902   1.65382   2.20124
C     0.90602  -0.92267  -0.41735
C     2.00836  -1.05731   0.53457
O     2.00581  -1.89835   1.41019
O     2.97365  -0.16988   0.33116
C     4.06591  -0.17615   1.26826
C     0.06437  -1.35864  -1.20699
C    -0.80388  -1.95856  -2.07375
N    -1.53200  -2.50392  -2.81098
H    -4.72000  -0.35984   1.07256
H    -3.62759  -1.76708   1.10659
H    -3.58007  -0.56876   2.43333
H    -1.92492   0.45927   1.20135
H    -1.69144   1.23453  -2.36072
H     1.59722   3.85689   0.07151
H     2.82004   2.59883  -0.20874
H     2.74408   3.42229   1.39800
H     4.74491   0.61563   0.94228
H     3.69112   0.02521   2.28029
H     4.57564  -1.15340   1.24748
29

C    -3.70963  -0.69567   1.35179
N    -2.70210   0.08818   0.66408
C    -2.71742   0.22041  -0.67630
O    -3.60383  -0.25210  -1.39858
C    -1.59395   0.96196  -1.30846
N    -0.58267   1.38996  -0.63090
C     0.43567   1.28756   0.00923
C     1.19933   2.00243   1.03856
C     2.15916   3.03969   0.55444
O     1.04782   1.65055   2.19844
C     0.89516  -0.89334  -0.40988
C     2.00451  -1.05380   0.53304
O     2.00337  -1.90141   1.40121
O     2.97292  -0.16802   0.33247
C     4.06618  -0.17891   1.26795
C     0.05757  -1.34321  -1.20236
C    -0.80069  -1.95643  -2.06858
N    -1.52513  -2.50642  -2.80643
H    -4.72008  -0.35952   1.07229
H    -3.62767  -1.76678   1.10671
H    -3.58046  -0.56830   2.43338
H    -1.92451   0.45867   1.20146
H    -1.68951   1.23118  -2.36102
H     1.59452   3.85488   0.07045
H     2.81929   2.59881  -0.20974
H     2.74216   3.42248   1.39701
H     4.74524   0.61484   0.94268
H     3.69158   0.02377   2.28049
H     4.57540  -1.15435   1.24653
29

C    -3.71025  -0.69461   1.35196
N    -2.70200   0.08877   0.66457
C    -2.71536   0.21823  -0.67571
O    -3.60099  -0.25267  -1.39920
C    -1.58631   0.95313  -1.30865
N    -0.58092   1.39576  -0.62929
C     0.44046   1.26527   0.00569
C     1.20108   1.99419   1.03592
C     2.15480   3.03642   0.55128
O     1.04662   1.64728   2.19565
C     0.88430  -0.86402  -0.40240
C     2.00067  -1.05029   0.53152
O     2.00092  -1.90446   1.39223
O     2.97219  -0.16616   0.33378
C     4.06646  -0.18166   1.26765
C     0.05077  -1.32777  -1.19773
C    -0.79749  -1.95430  -2.06341
N    -1.51827  -2.50892  -2.80189
H    -4.72015  -0.35919   1.07203
H    -3.62776  -1.76648   1.10684
H    -3.58085  -0.56784   2.43343
H    -1.92410   0.45808   1.20158
H    -1.68757   1.22784  -2.36132
H     1.59182   3.85288   0.06939
H     2.81854   2.59879  -0.21074
H     2.74024   3.42268   1.39602
H     4.74556   0.61405   0.94308
H     3.69204   0.02233   2.28069
H     4.57515  -1.15529   1.24558
29

C    -3.71087  -0.69355   1.35213
N    -2.70191   0.08936   0.66506
C    -2.71329   0.21605  -0.67512
O    -3.59815  -0.25324  -1.39982
C    -1.57868   0.94430  -1.30883
N    -0.57916   1.40155  -0.62769
C     0.44526   1.24298   0.00216
C     1.20282   1.98595   1.03328
C     2.15044   3.03314   0.54812
O     1.04542   1.64401   2.19285
C     0.87343  -0.83469  -0.39492
C     1.99682  -1.04678   0.53000
O     1.99848  -1.90751   1.38324
O     2.97147  -0.16430   0.33509
C     4.06674  -0.18441   1.26735
C     0.04396  -1.31234  -1.19310
C    -0.79430  -1.95217  -2.05824
N    -1.51140  -2.51142  -2.79734
H    -4.72023  -0.35886   1.07176
H    -3.62784  -1.76618   1.10696
H    -3.58125  -0.56739   2.43348
H    -1.92369   0.45748   1.20169
H    -1.68563   1.22449  -2.36162
H     1.58913   3.85087   0.06833
H     2.81779   2.59876  -0.21173
H     2.73832   3.42287   1.39503
H     4.74589   0.61326   0.94348
H     3.69250   0.02089   2.28089
H     4.57491  -1.15623   1.24463
29

C    -3.71149  -0.69249   1.35230
N    -2.70181   0.08995   0.66555
C    -2.71123   0.21387  -0.67453
O    -3.59531  -0.25381  -1.40044
C    -1.57104   0.93547  -1.30902
N    -0.57740   1.40735  -0.62608
C     0.45005   1.22069  -0.00138
C     1.20456   1.97770   1.03065
C     2.14609   3.02986   0.54496
O     1.04422   1.64074   2.19005
C     0.86257  -0.80537  -0.38744
C     1.99298  -1.04327   0.52848
O     1.99604  -1.91057   1.37426
O     2.97074  -0.16244   0.33640
C     4.06701  -0.18716   1.26704
C     0.03716  -1.29690  -1.18847
C    -0.79110  -1.95004  -2.05307
N    -1.50453  -2.51392  -2.79280
H    -4.72030  -0.35854   1.07149
H    -3.62792  -1.76588   1.10709
H    -3.58164  -0.56693   2.43353
H    -1.92328   0.45689   1.20180
H    -1.68369   1.22114  -2.36191
H     1.58643   3.84887   0.06727
H     2.81705   2.59874  -0.21273
H     2.73640   3.42306   1.39404
H     4.74621   0.61246   0.94388
H     3.69296   0.01945   2.28110
H     4.57467  -1.15717   1.24367
29

C    -3.71212  -0.69143   1.35247
N    -2.70171   0.09054   0.66604
C    -2.70916   0.21170  -0.67393
O    -3.59248  -0.25438  -1.40106
C    -1.56340   0.92664  -1.30921
N    -0.57565   1.41315  -0.62448
C     0.45485   1.19840  -0.00491
C     1.20630   1.96946   1.02801
C     2.14173   3.02658   0.54180
O     1.04302   1.63747   2.18725
C     0.85171  -0.77604  -0.37996
C     1.98913  -1.03976   0.52696
O     1.99359  -1.91362   1.36527
O     2.97002  -0.16058   0.33771
C     4.06729  -0.18991   1.26674
C     0.03036  -1.28146  -1.18384
C    -0.78791  -1.94791  -2.04790
N    -1.49766  -2.51641  -2.78826
H    -4.72038  -0.35821   1.07123
H    -3.62801  -1.76558   1.10722
H    -3.58203  -0.56647   2.43358
H    -1.92287   0.45629   1.20192
H    -1.68176   1.21779  -2.36221
H     1.58373   3.84686   0.06621
H     2.81630   2.59872  -0.21373
H     2.73448   3.42326   1.39305
H     4.74653   0.61167   0.94428
H     3.69343   0.01801   2.28130
H     4.57443  -1.15811   1.24272
29

C    -3.71274  -0.69037   1.35263
N    -2.70161   0.09113   0.66653
C    -2.70710   0.20952  -0.67334
O    -3.58964  -0.25495  -1.40168
C    -1.55577   0.91781  -1.30940
N    -0.57389   1.41895  -0.62287
C     0.45964   1.17611  -0.00845
C     1.20804   1.96122   1.02537
C     2.13737   3.02330   0.53864
O     1.04182   1.63420   2.18445
C     0.84084  -0.74672  -0.37249
C     1.98529  -1.03625   0.52544
O     1.99115  -1.91667   1.35629
O     2.96929  -0.15872   0.33902
C     4.06757  -0.19266   1.26643
C     0.02356  -1.26603  -1.17920
C    -0.78471  -1.94578  -2.04273
N    -1.49079  -2.51891  -2.78371
H    -4.72045  -0.35789   1.07096
H    -3.62809  -1.76528   1.10734
H    -3.58242  -0.56602   2.43363
H    -1.92246   0.45569   1.20203
H    -1.67982   1.21444  -2.36251
H     1.58104   3.84486   0.06515
H     2.81555   2.59869  -0.21472
H     2.73257   3.42345   1.39206
H     4.74686   0.61088   0.94468
H     3.69389   0.01657   2.28150
H     4.57418  -1.15906   1.24177
29

C    -3.71336  -0.68932   1.35280
N    -2.70151   0.09172   0.66703
C    -2.70503   0.20734  -0.67275
O    -3.58680  -0.25552  -1.40230
C    -1.54813   0.90898  -1.30959
N    -0.57213   1.42474  -0.62127
C     0.46443   1.15382  -0.01198
C     1.20978   1.95298   1.02274
C     2.13302   3.02003   0.53548
O     1.04063   1.63093   2.18166
C     0.82998  -0.71739  -0.36501
C     1.98144  -1.03274   0.52392
O     1.98871  -1.91973   1.34731
O     2.96857  -0.15686   0.34033
C     4.06785  -0.19542   1.26613
C     0.01676  -1.25059  -1.17457
C    -0.78152  -1.94365  -2.03756
N    -1.48393  -2.52141  -2.77917
H    -4.72053  -0.35756   1.07069
H    -3.62817  -1.76498   1.10747
H    -3.58281  -0.56556   2.43367
H    -1.92205   0.45510   1.20214
H    -1.67788   1.21110  -2.36281
H     1.57834   3.84285   0.06409
H     2.81480   2.59867  -0.21572
H     2.73065   3.42364   1.39107
H     4.74718   0.61009   0.94508
H     3.69435   0.01513   2.28170
H     4.57394  -1.16000   1.24082
29

C    -3.71399  -0.68826   1.35297
N    -2.70142   0.09231   0.66752
C    -2.70297   0.20516  -0.67216
O    -3.58396  -0.25608  -1.40292
C    -1.54049   0.90015  -1.30977
N    -0.57038   1.43054  -0.61967
C     0.46923   1.13153  -0.01552
C     1.21152   1.94473   1.02010
C     2.12866   3.01675   0.53232
O     1.03943   1.62766   2.17886
C     0.81912  -0.68807  -0.35753
C     1.97760  -1.02923   0.52240
O     1.98626  -1.92278   1.33832
O     2.96784  -0.15500   0.34164
C     4.06812  -0.19817   1.26583
C     0.00996  -1.23516  -1.16994
C    -0.77832  -1.94152  -2.03239
N    -1.47706  -2.52391  -2.77463
H    -4.72061  -0.35724   1.07043
H    -3.62826  -1.76468   1.10759
H    -3.58320  -0.56510   2.43372
H    -1.92164   0.45450   1.20226
H    -1.67594   1.20775  -2.36311
H     1.57564   3.84085   0.06303
H     2.81405   2.59865  -0.21672
H     2.72873   3.42384   1.39009
H     4.74751   0.60929   0.94548
H     3.69481   0.01369   2.28190
H     4.57370  -1.16094   1.23987
29

C    -3.71461  -0.68720   1.35314
N    -2.70132   0.09290   0.66801
C    -2.70090   0.20299  -0.67157
O    -3.58113  -0.25665  -1.40353
C    -1.53285   0.89132  -1.30996
N    -0.56862   1.43634  -0.61806
C     0.47402   1.10924  -0.01905
C     1.21327   1.93649   1.01746
C     2.12430   3.01347   0.52916
O     1.03823   1.62439   2.17606
C     0.80825  -0.65874  -0.35005
C     1.97375  -1.02573   0.52088
O     1.98382  -1.92583   1.32934
O     2.96711  -0.15314   0.34296
C     4.06840  -0.20092   1.26552
C     0.00316  -1.21972  -1.16531
C    -0.77513  -1.93940  -2.02722
N    -1.47019  -2.52640  -2.77008
H    -4.72068  -0.35691   1.07016
H    -3.62834  -1.76437   1.10772
H    -3.58359  -0.56465   2.43377
H    -1.92123   0.45390   1.20237
H    -1.67401   1.20440  -2.36341
H     1.57295   3.83884   0.06197
H     2.81330   2.59862  -0.21772
H     2.72681   3.42403   1.38910
H     4.74783   0.60850   0.94588
H     3.69527   0.01225   2.28210
H     4.57346  -1.16188   1.23892
29

C    -3.71523  -0.68614   1.35331
N    -2.70122   0.09349   0.66850
C    -2.69884   0.20081  -0.67098
O    -3.57829  -0.25722  -1.40415
C    -1.52522   0.88249  -1.31015
N    -0.56686   1.44214  -0.61646
C     0.47882   1.08695  -0.02259
C     1.21501   1.92825   1.01483
C     2.11995   3.01019   0.52600
O     1.03703   1.62112   2.17326
C     0.79739  -0.62942  -0.34257
C     1.96991  -1.02222   0.51936
O     1.98138  -1.92889   1.32035
O     2.96639  -0.15128   0.34427
C     4.06868  -0.20367   1.26522
C    -0.00364  -1.20429  -1.16068
C    -0.77193  -1.93727  -2.02205
N    -1.46332  -2.52890  -2.76554
H    -4.72076  -0.35659   1.06990
H    -3.62843  -1.76407   1.10785
H    -3.58398  -0.56419   2.43382
H    -1.92082   0.45331   1.20248
H    -1.67207   1.20105  -2.36371
H     1.57025   3.83684   0.06091
H     2.81256   2.59860  -0.21871
H     2.72489   3.42422   1.38811
H     4.74815   0.60771   0.94627
H     3.69573   0.01082   2.28230
H     4.57321  -1.16282   1.23797
29

C    -3.71586  -0.68508   1.35347
N    -2.70112   0.09408   0.66899
C    -2.69677   0.19863  -0.67039
O    -3.57545  -0.25779  -1.40477
C    -1.51758   0.87366  -1.31034
N    -0.56511   1.44793  -0.61485
C     0.48361   1.06466  -0.02612
C     1.21675   1.92000   1.01219
C     2.11559   3.00692   0.52284
O     1.03583   1.61785   2.17046
C     0.78653  -0.60009  -0.33510
C     1.96606  -1.01871   0.51784
O     1.97893  -1.93194   1.31137
O     2.96566  -0.14942   0.34558
C     4.06895  -0.20642   1.26491
C    -0.01044  -1.18885  -1.15605
C    -0.76874  -1.93514  -2.01688
N    -1.45645  -2.53140  -2.76100
H    -4.72083  -0.35626   1.06963
H    -3.62851  -1.76377   1.10797
H    -3.58437  -0.56373   2.43387
H    -1.92041   0.45271   1.20260
H    -1.67013   1.19770  -2.36401
H     1.56755   3.83483   0.05985
H     2.81181   2.59858  -0.21971
H     2.72297   3.42442   1.38712
H     4.74848   0.60692   0.94667
H     3.69619   0.00938   2.28250
H     4.57297  -1.16377   1.23702
