18

C 5.670864293 0.706878815 1.183608793
C 3.768188329 1.183740488 -0.369518653
C 1.170980434 1.975421123 0.426171848
C -0.868834278 0.107238651 -0.408042345
C -3.527124149 0.927057874 0.335910762
C -5.553339221 -0.935385179 -0.504597278
H -5.546868931 -1.165889606 -2.556913510
H -7.437301567 -0.304864413 0.050080596
H -5.244934273 -2.798356353 0.331641625
H -3.615563805 1.168454494 2.389594929
H -3.916035436 2.790721425 -0.476370892
H -0.459690166 -1.750108774 0.408840433
H -0.775581528 -0.136716110 -2.463109150
H 0.746337639 3.832750878 -0.388617793
H 1.114635623 2.203839651 2.480819096
H 4.060997159 0.967847499 -2.394647396
H 7.503866754 0.117903830 0.488018484
H 5.462317236 0.892176477 3.215849275

