15

O -3.872105370 -1.157368302 2.468322243
C -2.231054467 0.306378613 1.025445236
C -1.219729661 -0.730454774 -1.209452007
C 0.434978104 0.607116280 -3.028018000
C 2.323061849 -0.807331100 -1.458261531
C 3.244058256 0.286573565 0.681018613
C 2.419278218 1.274780954 2.686328437
H -3.063861059 -2.732468878 2.855426573
H -0.027174885 0.735048301 2.480383873
H -2.863789556 2.259408163 1.000538910
H -1.746115878 -2.654914991 -1.671685272
H 0.280602257 0.040428517 -4.993639324
H 0.503641360 2.646444237 -2.809139168
H 2.917927507 -2.659001089 -2.087079710
H 2.923577940 2.613224514 4.129436198

