13

C 5.035931263 -0.284731082 -1.383612569
O 2.702586110 0.861299071 -1.894618134
C 0.863297229 0.288540770 -0.060505043
C -1.587123808 1.468104642 -0.813412730
C -3.019313185 2.838498142 0.708687888
H -2.455548866 3.243265195 2.638460805
H -4.812542996 3.603845273 0.086330267
H -2.176346139 1.104819176 -2.746286726
H 1.454729955 0.969504335 1.811767344
H 0.634498223 -1.777383532 0.075557316
H 6.331470481 0.241293970 -2.893769267
H 5.818514378 0.359760201 0.427252507
H 4.870297694 -2.353347696 -1.327420126

