16

C 3.930887588 1.310413574 -1.683635900
O 1.336577701 0.808174561 -1.435450591
C 0.829821203 -1.422235774 -0.053276236
C -2.002050822 -1.773353842 0.189168407
C -3.315480001 0.408275178 1.533798269
O -3.437751404 2.624022353 0.060025846
H 4.894968579 -0.223505770 -2.691313743
H 4.126289521 3.050749799 -2.763762686
H 4.832268392 1.554279310 0.167778805
H 1.698872743 -1.278037973 1.831332189
H 1.691760117 -3.049242346 -1.013766407
H -2.837353932 -2.012406143 -1.685749257
H -2.333101888 -3.521940914 1.241991145
H -5.265199923 -0.109962823 1.968688728
H -2.359642714 0.774389357 3.345505444
H -1.790865178 2.860381454 -0.678897622

