16

N 3.605897270 0.989384915 1.481314659
C 1.898018999 -0.783608102 1.755414483
O 1.475276210 -0.989546997 4.123786371
C 0.531036814 -2.261675626 -0.219081524
C -2.097493329 -1.171159637 -0.791270507
C -2.083832877 1.496904711 -1.882790603
O -1.658988033 3.408951544 -0.076199200
H 4.517626706 1.376247701 -0.146895215
H 3.228628378 0.733118759 3.932712496
H 1.660298180 -2.298654090 -1.946668618
H 0.341444390 -4.195977272 0.466872732
H -3.010963808 -2.431757459 -2.149585463
H -3.244811539 -1.181473988 0.924672718
H -0.707605755 1.619409798 -3.437150150
H -3.938354349 1.899081157 -2.690539087
H 0.048850838 3.295464948 0.536320167

