13

O 2.956321054 -0.963879093 2.116147912
C 0.924386935 -1.124685696 0.384104012
C -0.512853510 1.327774582 0.094587048
O 0.714036040 -1.990550194 -4.086184128
C 1.868954671 -2.136165724 -2.142860665
C -3.291073792 1.368703839 -0.400255237
C -2.627158126 2.019047415 1.844045756
H 3.782085053 0.635846902 1.894177393
H -0.357121445 -2.568700790 1.135687606
H 0.647935442 2.835943176 -0.715645142
H 3.747475551 -3.068002035 -2.043312954
H -4.719440820 1.034507191 -1.805374382
H -3.105949474 2.639983187 3.718625896

