13

O 3.622759315 -1.612410101 1.571474759
C 1.096956158 -1.026651127 1.250252914
C 0.485013195 1.786808333 0.562221320
O 1.343685925 1.189945536 -1.990345367
C 0.055182063 -1.202202791 -1.514879370
C -2.658853615 -0.379830869 -1.122013151
C -2.363706230 1.672031962 0.304158450
H 4.533840990 -0.805898518 0.216662221
H 0.018201785 -1.919589693 2.757557430
H 1.418349420 3.395054989 1.434813847
H 0.538657059 -2.717767754 -2.814523640
H -4.348772250 -1.300728009 -1.796246929
H -3.741313815 2.921238062 1.140867516

