13

O 3.917890146 -0.119006429 1.473031158
C 1.438484036 -0.863246433 0.918443973
C -0.281821584 1.351895443 1.401504666
O 3.051675444 -1.457883794 -3.198920919
C 1.353745579 -1.953121050 -1.771204845
C -3.676101408 0.047312185 -1.254461542
C -2.590497799 1.846045200 0.412495617
H 4.781879544 -0.039547546 -0.138975070
H 0.867324689 -2.381128068 2.217029146
H 0.533926640 2.644233956 2.779875247
H -0.210299910 -3.206460246 -2.266303074
H -5.661294436 0.559913643 -1.625260919
H -3.525629055 3.569248904 1.051397336

