14

C 4.215897480 -0.038885102 -0.347620979
O 2.277816817 -0.099603703 -2.178608519
C -0.103940247 0.316569169 -1.293401239
C -3.692386142 -1.683201604 0.804534910
C -0.836194796 2.244749954 0.324525918
O -2.919867954 2.104753090 1.456477535
H 5.903472382 -0.822890349 -1.226667016
H 4.626156757 1.894900932 0.265320401
H 3.697511211 -1.173044128 1.303069833
H -1.532797602 -0.238066809 -2.650187822
H -3.396016463 -3.070782257 -0.667688768
H -2.787460778 -2.109196441 2.582566750
H -5.604357498 -0.980729478 0.925619565
H 0.312487436 3.946830035 0.586502694

