12

O -1.441527421 1.532979337 -2.930786281
C -0.274598787 2.076171493 -0.646801512
C -1.248544715 0.613634966 1.574943030
C 0.959062030 -4.346267588 -0.406966562
O 1.836522719 -2.126948207 -0.912843146
C 1.324885644 0.084286906 0.558322853
H -0.169433789 1.257949013 -4.195207587
H 0.287323012 4.033885390 -0.385693669
H -1.403624787 1.503209234 3.407749375
H -0.276772746 -4.153422001 1.303185447
H -2.728481424 -0.724330209 1.122109338
H 2.986771194 0.633044343 1.614498777

