12

O -1.098821034 1.990278716 -3.048543147
C -0.187498702 2.098154885 -0.613681718
C -0.997042671 0.262184930 1.404811308
C -0.446863385 -3.151694056 -0.050136569
O 1.745697530 -1.975009030 -1.062609270
C 1.688175438 0.249565925 0.343035010
H -0.461092400 0.458692466 -3.806807830
H 0.056488487 4.012599477 0.072650143
H -1.602841945 0.678692398 3.306840778
H 0.048629966 -3.836732664 1.851506489
H -2.196296545 -1.372646204 0.242291443
H 3.386490807 0.771901873 1.365439526

