13

C -1.200609544 -0.879387227 -2.131731104
C 1.067643841 -0.365892249 -0.452822486
C 3.495426224 -1.520672515 -1.452975249
H 5.081718231 -1.119461586 -0.199573768
H 3.952252963 -0.779171951 -3.328282556
H 3.319032649 -3.573220636 -1.632170324
C 1.169000946 2.008582452 1.094846997
H 1.448010277 4.024447739 1.086045692
C 0.710061322 -0.032468159 2.341035469
H 0.332466339 -0.944080640 4.120829195
H -1.517439968 -2.911014700 -2.349717815
H -2.913293181 -0.043180261 -1.346797548
H -0.913392130 -0.097398242 -4.024319143

