16

C -1.534533807 -0.582098839 -2.320824527
C 0.494772289 -0.007497696 -0.377863589
C 2.911295136 -1.483239894 -0.864250105
C 0.595819649 2.541212608 0.903647399
C -0.075909580 0.396433039 2.344153347
O -3.123294004 1.057232678 2.959096155
H -2.110116435 -2.570801145 -2.272706166
H -3.202524495 0.607968037 -2.086255714
H -0.811053955 -0.197263370 -4.216330851
H 4.277213197 -1.217156364 0.657779309
H 3.794338642 -0.823488183 -2.611208554
H 2.548368301 -3.508421587 -1.069889478
H 2.289108214 3.651648805 1.185137903
H -2.458680501 2.624743151 1.822330384
H 0.566115913 -0.588021770 4.014705180
H -4.229145254 -0.022027536 1.983970565

