15

C -4.348415224 -2.947930160 0.923726192
C -2.537346228 -1.323461547 0.341918711
O -0.729280441 -1.857752469 -1.386565833
C 1.340597148 -0.184744180 -1.542544318
C 2.979868629 0.291865403 0.865057793
C 2.492629034 3.055238504 0.335376498
C 0.928786028 2.645372006 -1.593415216
H -5.785273471 -2.419188683 2.273396672
H -4.436024363 -4.799849195 0.060518536
H -2.434184170 0.545966482 1.189495762
H 2.451156386 -0.880022647 -3.132381546
H 2.095802856 -0.430643148 2.583686205
H 4.934808238 -0.363936572 0.786957207
H 3.244703919 4.758202542 1.184693439
H -0.136045617 3.861242468 -2.847743306

