15

C -3.800422956 -0.573013206 0.398260556
C -1.336255049 -1.168000109 1.206362948
O 0.330845313 -2.794502181 -0.311491947
C 1.943061944 -1.037442805 -1.540750930
C 3.018299233 0.516768097 0.686370430
C 0.295177847 1.620986434 0.639366932
C 0.233259818 1.172879571 -2.013450122
H -5.424717185 -1.492742325 1.243896499
H -4.162403264 0.943747822 -0.917241200
H -1.246781147 -1.999317012 3.096121538
H 3.092241817 -1.950770307 -2.974448819
H 3.587863141 -0.533557746 2.364344938
H 4.441608542 1.891916185 0.132383063
H -0.408192276 3.227120357 1.691704124
H -0.501799311 2.126285990 -3.659251211

