10

C 0.064874903 -0.000263522 -3.438316659
C 2.260162768 -0.113643953 -2.243506892
C 3.365909573 -2.493906356 -1.183676294
O 3.858756590 -2.294044462 1.440178251
H 2.308521578 -1.851201053 2.269646359
H 2.118279863 -4.097909028 -1.597780503
H 5.195171529 -2.882599399 -2.058131657
H 3.368152999 1.591104799 -1.948938009
H -0.673183770 1.760032936 -4.178098139
H -1.073219667 -1.681026926 -3.735872009

