16

C -1.591756906 -1.310345184 -1.723628911
C -0.339498104 0.806631940 -0.272977383
C 0.422301500 3.034067505 -1.869121836
C 1.793952461 -2.589419426 1.964620090
C -0.972659138 1.201361825 2.250486539
O -0.771893860 -0.461906645 3.928137280
H -3.046732846 -0.536376594 -2.978808549
H -0.253834533 -2.329518722 -2.937852950
H -2.480055949 -2.695945518 -0.483904758
H -1.055780065 3.578104482 -3.217052161
H 2.100030476 2.576299965 -2.989649530
H 0.895559106 4.681222091 -0.720759780
H 0.934930284 -4.125478469 3.000222170
H 2.171726855 -3.022626290 0.001327079
H 3.285076179 -1.601867848 2.947028855
H -1.712973880 3.043772401 2.866468300

