8

N -1.893241488 -0.939706226 0.118916875
C -0.203892624 0.981661850 0.110108048
C 2.952842843 -0.098421170 -1.490508272
N 3.519949861 -0.191384375 0.658307506
H -2.265347950 -1.762780767 -1.554691251
H -1.777121805 -2.173997833 1.560324789
H 0.164718488 1.818992693 1.933917294
H -0.425266235 2.351767129 -1.386499976

