11

O -3.585676539 -1.496352514 1.889325843
C -2.248601462 -1.676950673 -0.188822323
C -0.240219358 1.502226274 -0.292337154
C 2.378374492 0.837010383 -0.003827905
C 4.527651476 0.171532103 0.252222899
H -1.960974147 0.323138008 1.290317659
H -0.600558080 -2.937444353 -0.251140577
H -3.199684274 -1.464992698 -2.024176170
H -0.757914460 2.104963908 -2.186414978
H -0.786046019 3.039833229 1.004663956
H 6.445011481 -0.390468837 0.483970671

