14

C -1.235152358 -1.947967351 -0.252082303
C -0.993482560 0.774975531 -1.207158881
C -2.359856517 2.766267216 0.142024087
O -2.731079760 2.768930256 2.404656160
C 1.152678172 -0.600431507 0.200202348
O 1.787225622 0.199566644 2.610303149
N 3.263259990 -1.271849630 -1.301199004
H 0.307119367 0.956299741 3.381124703
H -2.484099188 -2.197812937 1.349774471
H -1.293863390 -3.395294682 -1.691716747
H -0.737241631 1.036772708 -3.216976742
H -3.038304554 4.365815312 -1.017631578
H 4.087750144 -2.846299763 -0.594359287
H 4.559815181 0.133747540 -1.268365353

