11

C -2.690428047 -0.805378068 0.795328486
C -4.121062992 -1.534493253 -1.524156225
H -6.017277737 -2.164209184 -1.008405878
H -4.266814204 0.053359686 -2.821355246
H -3.170168642 -3.101802111 -2.471449872
O -2.466832080 -2.780181988 2.458637453
H -1.540545706 -2.221682880 3.915821217
C -1.755912161 1.441058126 1.218777144
C -0.827639477 3.682111455 1.636860284
H 1.073634821 4.185879388 1.049264043
H -1.919166432 5.138050362 2.586958512

