10

C 1.214586015 1.647316952 0.200768793
C 2.074151810 -0.932889417 -0.294717642
N 1.482941052 -2.888805864 1.605889922
N -0.236448542 -2.316242356 -0.142128040
C -2.298143731 -0.823557668 -0.196538263
C -1.379208259 1.667246740 -0.001124595
H 2.422773172 3.285063763 0.342269596
H 3.439710143 -1.382518625 -1.763307548
H -4.170044674 -1.566892022 0.102986219
H -2.585484771 3.310216472 0.152328499

