14

O 3.882406154 1.945748246 -1.396840481
C 3.979438771 1.017273966 0.897844163
C 1.700746709 -0.598819381 1.335492979
C -0.347567159 -0.746152219 -0.639265908
C -2.958847769 -1.546967978 0.111726278
C -2.455577419 1.143985961 -0.628060021
H 5.369801725 2.960782017 -1.655639702
H 2.503477970 -2.471831729 1.745353184
H 0.941536540 0.003164762 3.168366750
H 0.283219471 -1.360987615 -2.487773685
H -4.026681282 -2.721414056 -1.177085156
H -3.300620197 -1.946079250 2.090532089
H -3.174993755 1.810022617 -2.421972287
H -2.455731942 2.555919420 0.854038308

