13

N -3.458992134 1.113418734 -0.248858846
C -0.859311041 0.522344508 0.062118397
C -0.053395780 -1.978754448 0.284008489
O -1.548630030 -4.027309843 0.158499513
N 2.443133648 -2.199494396 0.541932427
C 3.354429695 0.387655450 0.270099216
C 1.300878223 2.018305452 0.029152692
H -3.746034654 2.483945364 -1.543376119
H -4.279281067 1.649237405 1.390861974
H -3.216172229 -3.410454896 -0.256405618
H 3.501124938 -1.384715432 -1.406455653
H 5.266409952 0.790541375 0.850488987
H 1.392424361 4.050619614 -0.138458400

