11

C -3.210052294 -0.683015430 -2.666744242
C -1.851622556 -0.198803346 -0.683554814
C -0.474900553 0.281750625 1.293594142
C 2.375642042 0.444833120 1.304564644
C 3.526885515 0.033660520 -1.168675592
N 4.445859462 -0.286131974 -3.104160924
H -3.884490748 0.824454854 -3.877082701
H -1.389041015 0.591847086 3.103276967
H -3.684239438 -2.609889620 -3.172259869
H 2.976110909 2.299332463 1.989732529
H 3.156765343 -0.947907335 2.615904562

