10

N 3.279235073 -0.352369180 1.035179820
C 0.824160340 -0.131628873 1.070557005
C 0.067806246 1.339353217 -1.076094526
O -2.461596821 0.400636168 -1.491538928
C -2.914011296 -1.051666925 0.491567408
N -1.155817082 -1.397939678 2.169343400
H 4.283011387 -0.858885645 2.583293142
H 2.785871991 0.732304249 -1.230268531
H 0.008498363 3.383150905 -0.864105352
H -4.764089530 -1.926260880 0.561146387

