11

C -0.102390653 3.698364876 3.642554574
C 0.688844800 1.456925193 2.093419817
O 0.052523331 -0.690774966 2.456145207
O 2.239484648 2.149570704 0.210709338
C 3.118051658 0.152869111 -1.370800263
H 4.321486097 1.041973140 -2.778216294
H 4.189693914 -1.222586965 -0.273847413
H 1.534807061 -0.802965909 -2.277801359
H 1.556355948 4.552016112 4.518051913
H -0.967603592 5.121209557 2.430043969
H -1.428718649 3.099274338 5.090097616

