16

C -1.412732133 1.463685612 1.609154613
C -3.692512621 -1.271254896 -0.627266260
N -1.753169413 -1.999470155 -1.980392331
C 0.363128109 -1.261852299 -0.140501685
O 1.063617723 -2.794209935 1.418320734
O 1.952820716 0.062770900 -1.746175309
C 4.283844680 0.719213285 -0.610279644
H -3.017298472 2.640332428 1.003009803
H -1.735130370 0.798902846 3.529524480
H 0.189467796 2.759939940 1.594038372
H -3.874656557 -2.047822559 1.254132314
H -5.366278312 -0.456257630 -1.499603920
H -1.555956328 -1.268646677 -3.730500406
H 5.419169214 1.577158356 -2.094111287
H 4.015235494 2.081622937 0.921842815
H 5.214789381 -0.957082523 0.143951796

