15

C -3.270339263 -0.189583391 2.590091319
C -0.378254384 -0.452994148 -1.341398997
O -0.287618036 2.247786536 -1.210246051
C 2.428712959 2.251221189 -1.192589244
C 2.523264575 -0.634439453 -1.392637900
O -0.785133565 -0.912683521 3.308381396
C -1.664115653 -1.645855173 0.891418433
H -3.510690656 1.814115877 2.230705037
H -4.784020509 -1.129600402 3.608551825
H -1.326418193 -1.087727264 -3.070438043
H 3.171550410 3.044290923 0.562129271
H 3.193148732 3.290651570 -2.805108666
H 3.321917996 -1.375564849 -3.135590641
H 3.347285509 -1.595510866 0.227236316
H -2.010733093 -3.665690491 0.688692979

