15

C -3.228103563 -0.071808931 2.473645752
C -1.099160826 -0.427562063 -1.684905891
O -0.311327371 1.965635176 -2.138087954
C 2.167739306 2.085744978 -1.046415659
C 2.788601360 -0.678482619 -0.748131121
O 0.547414824 -1.170634973 2.273795290
C -1.604919510 -1.499865874 0.870714820
H -2.904354342 1.942013580 2.616520858
H -4.819920581 -0.872988746 3.485257362
H -2.202705891 -1.171327614 -3.265161735
H 2.118453208 3.043602364 0.777343811
H 3.382957132 3.146125600 -2.344132333
H 3.141354929 -1.663403321 -2.524988326
H 4.228314190 -1.168741392 0.625855069
H -2.220337546 -3.467346594 0.603059662

