13

O -1.287157357 0.291031373 3.589579144
C 3.487850671 1.071744471 -1.584324764
C 0.991667799 1.158529879 -1.464171215
C -2.502613326 -0.474723410 1.341895957
C -0.676485500 -1.033125423 -0.816109294
H 0.038020118 -0.886436019 3.967544533
H 4.518401758 -0.660256116 -1.201567616
H 4.597559607 2.720849028 -2.071917455
H 0.031952340 2.935940736 -1.848791936
H -3.698819941 -2.136285419 1.676533044
H -3.751948948 1.085828241 0.825030861
H 0.485066089 -2.681688555 -0.345471207
H -1.806220563 -1.564925308 -2.468961613

