15

C -1.855121479 -2.418832904 -0.077534442
C 0.185680672 -0.458965664 -0.113041357
C -2.595230637 2.842405529 -1.061990442
N -0.090733405 1.876953863 -0.541840832
C 2.864445896 -1.380340829 0.426661930
O 3.299614201 -3.590692987 0.867691409
N 4.626844183 0.449175579 0.363092148
H -2.857707964 -2.445688218 -1.882215257
H -1.051468277 -4.273430097 0.285358887
H -3.243947858 -1.982920406 1.387346100
H -3.355978646 2.038925615 -2.810659736
H -3.923485776 2.392453783 0.459336523
H -2.511888707 4.886851544 -1.273769346
H 4.079110751 2.230384256 -0.006532783
H 6.435753581 0.006621449 0.712404771

