15

C -2.255188971 -2.305424827 0.753681492
C -0.490939717 -0.085337065 0.294861564
C -1.454210885 1.881087922 -1.730117966
N -0.827531403 2.165742036 1.487176930
C 2.240104629 -0.932482994 -0.325830339
O 2.702705295 -3.021860781 -1.139981140
N 3.982054606 0.873248508 0.119731158
H -4.169860350 -1.609812597 1.054690279
H -2.208686024 -3.639981334 -0.811965729
H -1.647829899 -3.311012235 2.447160107
H 0.008350738 2.240523809 -3.121226436
H -3.278289133 1.242000556 -2.413802907
H -1.830573672 3.734036386 -0.731833405
H 3.418984799 2.462272738 1.001708726
H 5.816798355 0.479896611 -0.149942889

