12

N 5.708689240 -0.108935870 -0.599821144
C 3.634087788 -0.202269330 0.033804271
C 0.950459373 -0.177011024 0.840546665
C -0.362081730 2.360714888 1.104163120
C -2.932944783 -1.309908544 -0.877833494
N -0.508296568 -1.493583536 -1.134065239
H 0.872187597 -1.231566962 2.621760010
H 0.216356653 3.363551705 2.812756142
H -0.023471117 3.532011284 -0.564711696
H -4.149867879 -1.863267559 -2.428611765
H -3.685417228 -0.722028429 0.918832860
H 0.317635863 -2.141340134 -2.723352084

