13

C -2.916365800 -0.825537364 0.442196877
C -2.505211511 1.863738271 1.382016695
C -0.018086172 1.393989281 1.299497684
N 2.389007924 2.433663569 0.900034015
C 3.448911636 0.816959349 -0.542766041
C 1.813969896 -1.458164985 -1.232468059
N -0.113184504 -1.191471811 0.702768434
H -3.526736245 -0.932602047 -1.524902553
H -4.004752862 -2.140013698 1.599551743
H 1.112831312 -1.205902119 -3.175494608
H -3.707206149 3.433449632 1.851957132
H 5.348747700 1.108040327 -1.261269469
H 2.829740452 -3.251048183 -1.139935011

