13

C -2.666124317 -1.155471433 0.479962373
C -2.059117773 1.645203104 0.332441848
C 0.195102657 1.172096884 1.668914858
N 2.521391421 2.206388098 1.345085891
C 3.482630340 0.635030238 -0.317858756
C 1.683146254 -1.261740408 -1.060235056
N 0.067788312 -1.451947541 1.078724741
H -3.252209250 -2.119241318 -1.237943427
H -3.824732487 -1.745601456 2.074383453
H -0.265542652 0.779710448 -1.883838456
H -3.224703020 3.315321057 0.148110989
H 5.326673828 0.938333643 -1.152409094
H 2.167366142 -2.912979222 -2.174154416

