24

C     2.77712   1.47729  -1.10848
C     2.48913   0.57482   0.05447
O     3.30950   0.24556   0.88871
C     1.10816  -0.09807   0.06277
C     1.08329  -1.48156  -0.71540
C    -0.33490  -1.84145  -0.81397
C    -1.01482   0.05642  -0.08329
C    -2.32887   0.44422  -0.65610
C    -2.28913   1.26085  -1.91634
O    -3.36191   0.04670  -0.13657
O     0.10354   0.72535  -0.51067
C    -0.73496  -0.39203   1.29707
O    -1.44812  -0.80628   2.18208
O     0.61832  -0.31048   1.40818
H     2.42398   1.00793  -2.04593
H     3.86322   1.66737  -1.17727
H     2.23969   2.42935  -1.00334
H     1.58987  -1.36716  -1.74342
H     1.71376  -2.21611  -0.09922
H    -0.75316  -2.60289  -0.12056
H    -0.85675  -1.77319  -1.77946
H    -1.82955   2.24500  -1.74011
H    -1.66228   0.74371  -2.66678
H    -3.30789   1.38572  -2.30856
24

C     2.77815   1.47732  -1.10974
C     2.49008   0.57796   0.05497
O     3.31014   0.24409   0.88760
C     1.10575  -0.07389   0.07723
C     1.08412  -1.50817  -0.72970
C    -0.32744  -1.85810  -0.82165
C    -1.01895   0.07055  -0.07458
C    -2.32911   0.44718  -0.65481
C    -2.28910   1.26069  -1.91710
O    -3.36257   0.04666  -0.13730
O     0.10389   0.72460  -0.50795
C    -0.74034  -0.38932   1.29715
O    -1.44860  -0.80900   2.18276
O     0.61932  -0.30778   1.40663
H     2.42385   1.00757  -2.04594
H     3.86358   1.66676  -1.17800
H     2.24048   2.42967  -1.00405
H     1.59034  -1.36833  -1.74468
H     1.71471  -2.21654  -0.09951
H    -0.75233  -2.60368  -0.12042
H    -0.85680  -1.77329  -1.77900
H    -1.82976   2.24516  -1.74098
H    -1.66223   0.74325  -2.66669
H    -3.30787   1.38522  -2.30896
24

C     2.77918   1.47734  -1.11100
C     2.49104   0.58111   0.05547
O     3.31077   0.24263   0.88650
C     1.10335  -0.04970   0.09169
C     1.08494  -1.53477  -0.74400
C    -0.31997  -1.87476  -0.82934
C    -1.02307   0.08469  -0.06588
C    -2.32936   0.45015  -0.65353
C    -2.28907   1.26054  -1.91786
O    -3.36323   0.04661  -0.13802
O     0.10424   0.72386  -0.50523
C    -0.74572  -0.38660   1.29724
O    -1.44908  -0.81172   2.18343
O     0.62032  -0.30507   1.40507
H     2.42372   1.00721  -2.04595
H     3.86394   1.66615  -1.17872
H     2.24127   2.42999  -1.00476
H     1.59081  -1.36950  -1.74594
H     1.71566  -2.21698  -0.09979
H    -0.75150  -2.60447  -0.12028
H    -0.85685  -1.77338  -1.77855
H    -1.82997   2.24532  -1.74185
H    -1.66218   0.74279  -2.66659
H    -3.30785   1.38472  -2.30935
24

C     2.78020   1.47737  -1.11226
C     2.49200   0.58425   0.05597
O     3.31141   0.24117   0.88539
C     1.10094  -0.02552   0.10614
C     1.08576  -1.56138  -0.75830
C    -0.31251  -1.89141  -0.83702
C    -1.02720   0.09882  -0.05717
C    -2.32961   0.45311  -0.65224
C    -2.28905   1.26039  -1.91862
O    -3.36389   0.04657  -0.13874
O     0.10459   0.72312  -0.50252
C    -0.75110  -0.38388   1.29733
O    -1.44957  -0.81444   2.18410
O     0.62131  -0.30237   1.40351
H     2.42358   1.00684  -2.04596
H     3.86431   1.66554  -1.17945
H     2.24206   2.43031  -1.00548
H     1.59128  -1.37067  -1.74720
H     1.71660  -2.21741  -0.10007
H    -0.75067  -2.60527  -0.12014
H    -0.85690  -1.77348  -1.77810
H    -1.83018   2.24548  -1.74273
H    -1.66213   0.74234  -2.66650
H    -3.30783   1.38421  -2.30975
24

C     2.78123   1.47739  -1.11352
C     2.49295   0.58740   0.05647
O     3.31205   0.23970   0.88429
C     1.09853  -0.00133   0.12060
C     1.08658  -1.58799  -0.77260
C    -0.30505  -1.90806  -0.84470
C    -1.03133   0.11295  -0.04847
C    -2.32985   0.45608  -0.65096
C    -2.28902   1.26024  -1.91938
O    -3.36455   0.04652  -0.13947
O     0.10494   0.72238  -0.49980
C    -0.75649  -0.38116   1.29741
O    -1.45005  -0.81716   2.18478
O     0.62231  -0.29966   1.40195
H     2.42345   1.00648  -2.04597
H     3.86467   1.66493  -1.18018
H     2.24285   2.43063  -1.00619
H     1.59176  -1.37184  -1.74846
H     1.71755  -2.21784  -0.10036
H    -0.74984  -2.60606  -0.12000
H    -0.85695  -1.77357  -1.77764
H    -1.83040   2.24564  -1.74360
H    -1.66208   0.74188  -2.66641
H    -3.30781   1.38371  -2.31014
24

C     2.78226   1.47742  -1.11478
C     2.49391   0.59054   0.05698
O     3.31268   0.23824   0.88318
C     1.09613   0.02285   0.13506
C     1.08740  -1.61460  -0.78690
C    -0.29758  -1.92472  -0.85239
C    -1.03545   0.12708  -0.03976
C    -2.33010   0.45904  -0.64967
C    -2.28899   1.26009  -1.92014
O    -3.36520   0.04648  -0.14019
O     0.10529   0.72164  -0.49708
C    -0.76187  -0.37844   1.29750
O    -1.45053  -0.81989   2.18545
O     0.62331  -0.29695   1.40039
H     2.42332   1.00612  -2.04599
H     3.86504   1.66433  -1.18091
H     2.24364   2.43095  -1.00690
H     1.59223  -1.37301  -1.74972
H     1.71849  -2.21828  -0.10064
H    -0.74901  -2.60685  -0.11986
H    -0.85700  -1.77366  -1.77719
H    -1.83061   2.24580  -1.74448
H    -1.66202   0.74142  -2.66632
H    -3.30779   1.38321  -2.31054
24

C     2.78329   1.47745  -1.11604
C     2.49486   0.59368   0.05748
O     3.31332   0.23677   0.88207
C     1.09372   0.04704   0.14952
C     1.08822  -1.64120  -0.80119
C    -0.29012  -1.94137  -0.86007
C    -1.03958   0.14121  -0.03106
C    -2.33035   0.46201  -0.64838
C    -2.28896   1.25993  -1.92090
O    -3.36586   0.04643  -0.14092
O     0.10563   0.72089  -0.49437
C    -0.76725  -0.37572   1.29759
O    -1.45102  -0.82261   2.18613
O     0.62430  -0.29425   1.39883
H     2.42319   1.00576  -2.04600
H     3.86540   1.66372  -1.18163
H     2.24444   2.43128  -1.00761
H     1.59270  -1.37418  -1.75098
H     1.71944  -2.21871  -0.10093
H    -0.74818  -2.60764  -0.11972
H    -0.85705  -1.77376  -1.77673
H    -1.83082   2.24596  -1.74535
H    -1.66197   0.74097  -2.66623
H    -3.30777   1.38271  -2.31093
24

C     2.78432   1.47747  -1.11730
C     2.49582   0.59683   0.05798
O     3.31395   0.23531   0.88097
C     1.09132   0.07122   0.16398
C     1.08904  -1.66781  -0.81549
C    -0.28266  -1.95802  -0.86776
C    -1.04371   0.15535  -0.02235
C    -2.33059   0.46497  -0.64710
C    -2.28893   1.25978  -1.92167
O    -3.36652   0.04639  -0.14164
O     0.10598   0.72015  -0.49165
C    -0.77263  -0.37301   1.29768
O    -1.45150  -0.82533   2.18680
O     0.62530  -0.29154   1.39727
H     2.42306   1.00539  -2.04601
H     3.86576   1.66311  -1.18236
H     2.24523   2.43160  -1.00833
H     1.59317  -1.37535  -1.75224
H     1.72038  -2.21914  -0.10121
H    -0.74735  -2.60843  -0.11958
H    -0.85710  -1.77385  -1.77628
H    -1.83103   2.24612  -1.74622
H    -1.66192   0.74051  -2.66614
H    -3.30775   1.38221  -2.31133
24

C     2.78535   1.47750  -1.11856
C     2.49678   0.59997   0.05848
O     3.31459   0.23385   0.87986
C     1.08891   0.09541   0.17843
C     1.08987  -1.69442  -0.82979
C    -0.27519  -1.97467  -0.87544
C    -1.04783   0.16948  -0.01365
C    -2.33084   0.46794  -0.64581
C    -2.28891   1.25963  -1.92243
O    -3.36718   0.04634  -0.14237
O     0.10633   0.71941  -0.48893
C    -0.77801  -0.37029   1.29776
O    -1.45198  -0.82805   2.18747
O     0.62630  -0.28884   1.39572
H     2.42292   1.00503  -2.04602
H     3.86613   1.66250  -1.18309
H     2.24602   2.43192  -1.00904
H     1.59365  -1.37652  -1.75350
H     1.72133  -2.21958  -0.10149
H    -0.74652  -2.60922  -0.11945
H    -0.85715  -1.77395  -1.77582
H    -1.83124   2.24628  -1.74710
H    -1.66187   0.74005  -2.66605
H    -3.30773   1.38171  -2.31172
24

C     2.78638   1.47753  -1.11982
C     2.49773   0.60311   0.05899
O     3.31523   0.23238   0.87876
C     1.08651   0.11959   0.19289
C     1.09069  -1.72103  -0.84409
C    -0.26773  -1.99133  -0.88312
C    -1.05196   0.18361  -0.00494
C    -2.33109   0.47090  -0.64453
C    -2.28888   1.25948  -1.92319
O    -3.36784   0.04630  -0.14309
O     0.10668   0.71867  -0.48622
C    -0.78340  -0.36757   1.29785
O    -1.45247  -0.83078   2.18815
O     0.62729  -0.28613   1.39416
H     2.42279   1.00467  -2.04603
H     3.86649   1.66189  -1.18382
H     2.24681   2.43224  -1.00975
H     1.59412  -1.37769  -1.75476
H     1.72228  -2.22001  -0.10178
H    -0.74569  -2.61001  -0.11931
H    -0.85721  -1.77404  -1.77537
H    -1.83145   2.24644  -1.74797
H    -1.66182   0.73960  -2.66596
H    -3.30771   1.38121  -2.31212
24

C     2.78741   1.47755  -1.12108
C     2.49869   0.60626   0.05949
O     3.31586   0.23092   0.87765
C     1.08410   0.14377   0.20735
C     1.09151  -1.74764  -0.85839
C    -0.26026  -2.00798  -0.89081
C    -1.05609   0.19774   0.00376
C    -2.33134   0.47387  -0.64324
C    -2.28885   1.25933  -1.92395
O    -3.36849   0.04625  -0.14382
O     0.10703   0.71792  -0.48350
C    -0.78878  -0.36485   1.29794
O    -1.45295  -0.83350   2.18882
O     0.62829  -0.28342   1.39260
H     2.42266   1.00430  -2.04604
H     3.86685   1.66128  -1.18454
H     2.24760   2.43256  -1.01047
H     1.59459  -1.37886  -1.75602
H     1.72322  -2.22044  -0.10206
H    -0.74486  -2.61080  -0.11917
H    -0.85726  -1.77414  -1.77491
H    -1.83166   2.24660  -1.74884
H    -1.66177   0.73914  -2.66587
H    -3.30769   1.38070  -2.31251
24

C     2.78844   1.47758  -1.12233
C     2.49965   0.60940   0.05999
O     3.31650   0.22945   0.87655
C     1.08170   0.16796   0.22181
C     1.09233  -1.77424  -0.87269
C    -0.25280  -2.02463  -0.89849
C    -1.06021   0.21187   0.01247
C    -2.33158   0.47683  -0.64196
C    -2.28882   1.25918  -1.92471
O    -3.36915   0.04621  -0.14454
O     0.10738   0.71718  -0.48078
C    -0.79416  -0.36213   1.29802
O    -1.45343  -0.83622   2.18950
O     0.62929  -0.28072   1.39104
H     2.42253   1.00394  -2.04606
H     3.86722   1.66068  -1.18527
H     2.24839   2.43288  -1.01118
H     1.59506  -1.38003  -1.75728
H     1.72417  -2.22088  -0.10235
H    -0.74402  -2.61159  -0.11903
H    -0.85731  -1.77423  -1.77446
H    -1.83187   2.24676  -1.74972
H    -1.66171   0.73868  -2.66578
H    -3.30767   1.38020  -2.31291
24

C     2.78946   1.47760  -1.12359
C     2.50060   0.61254   0.06049
O     3.31714   0.22799   0.87544
C     1.07929   0.19214   0.23627
C     1.09315  -1.80085  -0.88699
C    -0.24534  -2.04129  -0.90618
C    -1.06434   0.22601   0.02117
C    -2.33183   0.47980  -0.64067
C    -2.28879   1.25902  -1.92547
O    -3.36981   0.04617  -0.14527
O     0.10772   0.71644  -0.47807
C    -0.79954  -0.35942   1.29811
O    -1.45392  -0.83894   2.19017
O     0.63028  -0.27801   1.38948
H     2.42240   1.00358  -2.04607
H     3.86758   1.66007  -1.18600
H     2.24919   2.43320  -1.01189
H     1.59554  -1.38120  -1.75854
H     1.72511  -2.22131  -0.10263
H    -0.74319  -2.61238  -0.11889
H    -0.85736  -1.77433  -1.77400
H    -1.83208   2.24692  -1.75059
H    -1.66166   0.73823  -2.66568
H    -3.30765   1.37970  -2.31330
24

C     2.79049   1.47763  -1.12485
C     2.50156   0.61569   0.06100
O     3.31777   0.22652   0.87434
C     1.07688   0.21633   0.25072
C     1.09397  -1.82746  -0.90129
C    -0.23787  -2.05794  -0.91386
C    -1.06847   0.24014   0.02988
C    -2.33208   0.48276  -0.63938
C    -2.28877   1.25887  -1.92623
O    -3.37047   0.04612  -0.14599
O     0.10807   0.71570  -0.47535
C    -0.80493  -0.35670   1.29820
O    -1.45440  -0.84166   2.19084
O     0.63128  -0.27531   1.38792
H     2.42227   1.00322  -2.04608
H     3.86795   1.65946  -1.18673
H     2.24998   2.43353  -1.01261
H     1.59601  -1.38236  -1.75980
H     1.72606  -2.22174  -0.10292
H    -0.74236  -2.61317  -0.11875
H    -0.85741  -1.77442  -1.77355
H    -1.83229   2.24708  -1.75146
H    -1.66161   0.73777  -2.66559
H    -3.30763   1.37920  -2.31369
24

C     2.79152   1.47766  -1.12611
C     2.50251   0.61883   0.06150
O     3.31841   0.22506   0.87323
C     1.07448   0.24051   0.26518
C     1.09480  -1.85407  -0.91559
C    -0.23041  -2.07459  -0.92154
C    -1.07259   0.25427   0.03858
C    -2.33232   0.48573  -0.63810
C    -2.28874   1.25872  -1.92699
O    -3.37112   0.04608  -0.14671
O     0.10842   0.71495  -0.47263
C    -0.81031  -0.35398   1.29829
O    -1.45488  -0.84439   2.19152
O     0.63228  -0.27260   1.38637
H     2.42213   1.00285  -2.04609
H     3.86831   1.65885  -1.18745
H     2.25077   2.43385  -1.01332
H     1.59648  -1.38353  -1.76106
H     1.72700  -2.22218  -0.10320
H    -0.74153  -2.61397  -0.11861
H    -0.85746  -1.77452  -1.77309
H    -1.83250   2.24724  -1.75234
H    -1.66156   0.73731  -2.66550
H    -3.30761   1.37870  -2.31409
24

C     2.79255   1.47768  -1.12737
C     2.50347   0.62197   0.06200
O     3.31905   0.22360   0.87212
C     1.07207   0.26470   0.27964
C     1.09562  -1.88068  -0.92989
C    -0.22295  -2.09125  -0.92923
C    -1.07672   0.26840   0.04729
C    -2.33257   0.48869  -0.63681
C    -2.28871   1.25857  -1.92775
O    -3.37178   0.04603  -0.14744
O     0.10877   0.71421  -0.46992
C    -0.81569  -0.35126   1.29837
O    -1.45537  -0.84711   2.19219
O     0.63327  -0.26989   1.38481
H     2.42200   1.00249  -2.04610
H     3.86867   1.65824  -1.18818
H     2.25156   2.43417  -1.01403
H     1.59695  -1.38470  -1.76232
H     1.72795  -2.22261  -0.10348
H    -0.74070  -2.61476  -0.11847
H    -0.85751  -1.77461  -1.77264
H    -1.83271   2.24740  -1.75321
H    -1.66151   0.73686  -2.66541
H    -3.30759   1.37820  -2.31448
24

C     2.79358   1.47771  -1.12863
C     2.50443   0.62512   0.06250
O     3.31968   0.22213   0.87102
C     1.06967   0.28888   0.29410
C     1.09644  -1.90728  -0.94419
C    -0.21548  -2.10790  -0.93691
C    -1.08085   0.28254   0.05599
C    -2.33282   0.49166  -0.63553
C    -2.28868   1.25842  -1.92851
O    -3.37244   0.04599  -0.14816
O     0.10912   0.71347  -0.46720
C    -0.82107  -0.34854   1.29846
O    -1.45585  -0.84983   2.19286
O     0.63427  -0.26719   1.38325
H     2.42187   1.00213  -2.04612
H     3.86904   1.65763  -1.18891
H     2.25235   2.43449  -1.01474
H     1.59743  -1.38587  -1.76358
H     1.72889  -2.22304  -0.10377
H    -0.73987  -2.61555  -0.11833
H    -0.85756  -1.77470  -1.77218
H    -1.83292   2.24756  -1.75409
H    -1.66145   0.73640  -2.66532
H    -3.30757   1.37770  -2.31488
24

C     2.79461   1.47774  -1.12989
C     2.50538   0.62826   0.06300
O     3.32032   0.22067   0.86991
C     1.06726   0.31307   0.30855
C     1.09726  -1.93389  -0.95848
C    -0.20802  -2.12455  -0.94459
C    -1.08497   0.29667   0.06470
C    -2.33306   0.49462  -0.63424
C    -2.28865   1.25827  -1.92927
O    -3.37310   0.04594  -0.14889
O     0.10947   0.71273  -0.46448
C    -0.82645  -0.34583   1.29855
O    -1.45633  -0.85255   2.19354
O     0.63527  -0.26448   1.38169
H     2.42174   1.00177  -2.04613
H     3.86940   1.65703  -1.18964
H     2.25314   2.43481  -1.01546
H     1.59790  -1.38704  -1.76484
H     1.72984  -2.22348  -0.10405
H    -0.73904  -2.61634  -0.11819
H    -0.85761  -1.77480  -1.77173
H    -1.83313   2.24772  -1.75496
H    -1.66140   0.73594  -2.66523
H    -3.30755   1.37719  -2.31527
24

C     2.79564   1.47776  -1.13115
C     2.50634   0.63141   0.06351
O     3.32095   0.21920   0.86881
C     1.06486   0.33725   0.32301
C     1.09808  -1.96050  -0.97278
C    -0.20055  -2.14121  -0.95228
C    -1.08910   0.31080   0.07340
C    -2.33331   0.49759  -0.63296
C    -2.28863   1.25811  -1.93003
O    -3.37376   0.04590  -0.14961
O     0.10982   0.71198  -0.46177
C    -0.83184  -0.34311   1.29864
O    -1.45682  -0.85527   2.19421
O     0.63626  -0.26178   1.38013
H     2.42161   1.00140  -2.04614
H     3.86977   1.65642  -1.19036
H     2.25394   2.43513  -1.01617
H     1.59837  -1.38821  -1.76610
H     1.73079  -2.22391  -0.10434
H    -0.73821  -2.61713  -0.11805
H    -0.85766  -1.77489  -1.77127
H    -1.83334   2.24788  -1.75583
H    -1.66135   0.73549  -2.66514
H    -3.30754   1.37669  -2.31567
24

C     2.79667   1.47779  -1.13241
C     2.50729   0.63455   0.06401
O     3.32159   0.21774   0.86770
C     1.06245   0.36144   0.33747
C     1.09890  -1.98711  -0.98708
C    -0.19309  -2.15786  -0.95996
C    -1.09323   0.32493   0.08211
C    -2.33356   0.50055  -0.63167
C    -2.28860   1.25796  -1.93080
O    -3.37441   0.04585  -0.15034
O     0.11016   0.71124  -0.45905
C    -0.83722  -0.34039   1.29872
O    -1.45730  -0.85800   2.19489
O     0.63726  -0.25907   1.37857
H     2.42147   1.00104  -2.04615
H     3.87013   1.65581  -1.19109
H     2.25473   2.43545  -1.01688
H     1.59884  -1.38938  -1.76736
H     1.73173  -2.22434  -0.10462
H    -0.73738  -2.61792  -0.11791
H    -0.85771  -1.77499  -1.77082
H    -1.83355   2.24804  -1.75671
H    -1.66130   0.73503  -2.66505
H    -3.30752   1.37619  -2.31606
24

C     2.79770   1.47781  -1.13367
C     2.50825   0.63769   0.06451
O     3.32223   0.21628   0.86660
C     1.06005   0.38562   0.35193
C     1.09972  -2.01371  -1.00138
C    -0.18563  -2.17451  -0.96765
C    -1.09735   0.33906   0.09081
C    -2.33380   0.50352  -0.63039
C    -2.28857   1.25781  -1.93156
O    -3.37507   0.04581  -0.15106
O     0.11051   0.71050  -0.45633
C    -0.84260  -0.33767   1.29881
O    -1.45778  -0.86072   2.19556
O     0.63826  -0.25637   1.37701
H     2.42134   1.00068  -2.04616
H     3.87049   1.65520  -1.19182
H     2.25552   2.43578  -1.01760
H     1.59932  -1.39055  -1.76862
H     1.73268  -2.22478  -0.10490
H    -0.73655  -2.61871  -0.11777
H    -0.85776  -1.77508  -1.77036
H    -1.83376   2.24820  -1.75758
H    -1.66125   0.73457  -2.66496
H    -3.30750   1.37569  -2.31646
24

C     2.79667   1.47779  -1.13241
C     2.50729   0.63455   0.06401
O     3.32159   0.21774   0.86770
C     1.06245   0.36144   0.33747
C     1.09890  -1.98711  -0.98708
C    -0.19309  -2.15786  -0.95996
C    -1.09323   0.32493   0.08211
C    -2.33356   0.50055  -0.63167
C    -2.28860   1.25796  -1.93080
O    -3.37441   0.04585  -0.15034
O     0.11016   0.71124  -0.45905
C    -0.83722  -0.34039   1.29872
O    -1.45730  -0.85800   2.19489
O     0.63726  -0.25907   1.37857
H     2.42147   1.00104  -2.04615
H     3.87013   1.65581  -1.19109
H     2.25473   2.43545  -1.01688
H     1.59884  -1.38938  -1.76736
H     1.73173  -2.22434  -0.10462
H    -0.73738  -2.61792  -0.11791
H    -0.85771  -1.77499  -1.77082
H    -1.83355   2.24804  -1.75671
H    -1.66130   0.73503  -2.66505
H    -3.30752   1.37619  -2.31606
24

C     2.79564   1.47776  -1.13115
C     2.50634   0.63141   0.06351
O     3.32095   0.21920   0.86881
C     1.06486   0.33725   0.32301
C     1.09808  -1.96050  -0.97278
C    -0.20055  -2.14121  -0.95228
C    -1.08910   0.31080   0.07340
C    -2.33331   0.49759  -0.63296
C    -2.28863   1.25811  -1.93003
O    -3.37376   0.04590  -0.14961
O     0.10982   0.71198  -0.46177
C    -0.83184  -0.34311   1.29864
O    -1.45682  -0.85527   2.19421
O     0.63626  -0.26178   1.38013
H     2.42161   1.00140  -2.04614
H     3.86977   1.65642  -1.19036
H     2.25394   2.43513  -1.01617
H     1.59837  -1.38821  -1.76610
H     1.73079  -2.22391  -0.10434
H    -0.73821  -2.61713  -0.11805
H    -0.85766  -1.77489  -1.77127
H    -1.83334   2.24788  -1.75583
H    -1.66135   0.73549  -2.66514
H    -3.30754   1.37669  -2.31567
24

C     2.79461   1.47774  -1.12989
C     2.50538   0.62826   0.06300
O     3.32032   0.22067   0.86991
C     1.06726   0.31307   0.30855
C     1.09726  -1.93389  -0.95848
C    -0.20802  -2.12455  -0.94459
C    -1.08497   0.29667   0.06470
C    -2.33306   0.49462  -0.63424
C    -2.28865   1.25827  -1.92927
O    -3.37310   0.04594  -0.14889
O     0.10947   0.71273  -0.46448
C    -0.82645  -0.34583   1.29855
O    -1.45633  -0.85255   2.19354
O     0.63527  -0.26448   1.38169
H     2.42174   1.00177  -2.04613
H     3.86940   1.65703  -1.18964
H     2.25314   2.43481  -1.01546
H     1.59790  -1.38704  -1.76484
H     1.72984  -2.22348  -0.10405
H    -0.73904  -2.61634  -0.11819
H    -0.85761  -1.77480  -1.77173
H    -1.83313   2.24772  -1.75496
H    -1.66140   0.73594  -2.66523
H    -3.30755   1.37719  -2.31527
24

C     2.79358   1.47771  -1.12863
C     2.50443   0.62512   0.06250
O     3.31968   0.22213   0.87102
C     1.06967   0.28888   0.29410
C     1.09644  -1.90728  -0.94419
C    -0.21548  -2.10790  -0.93691
C    -1.08085   0.28254   0.05599
C    -2.33282   0.49166  -0.63553
C    -2.28868   1.25842  -1.92851
O    -3.37244   0.04599  -0.14816
O     0.10912   0.71347  -0.46720
C    -0.82107  -0.34854   1.29846
O    -1.45585  -0.84983   2.19286
O     0.63427  -0.26719   1.38325
H     2.42187   1.00213  -2.04612
H     3.86904   1.65763  -1.18891
H     2.25235   2.43449  -1.01474
H     1.59743  -1.38587  -1.76358
H     1.72889  -2.22304  -0.10377
H    -0.73987  -2.61555  -0.11833
H    -0.85756  -1.77470  -1.77218
H    -1.83292   2.24756  -1.75409
H    -1.66145   0.73640  -2.66532
H    -3.30757   1.37770  -2.31488
24

C     2.79255   1.47768  -1.12737
C     2.50347   0.62197   0.06200
O     3.31905   0.22360   0.87212
C     1.07207   0.26470   0.27964
C     1.09562  -1.88068  -0.92989
C    -0.22295  -2.09125  -0.92923
C    -1.07672   0.26840   0.04729
C    -2.33257   0.48869  -0.63681
C    -2.28871   1.25857  -1.92775
O    -3.37178   0.04603  -0.14744
O     0.10877   0.71421  -0.46992
C    -0.81569  -0.35126   1.29837
O    -1.45537  -0.84711   2.19219
O     0.63327  -0.26989   1.38481
H     2.42200   1.00249  -2.04610
H     3.86867   1.65824  -1.18818
H     2.25156   2.43417  -1.01403
H     1.59695  -1.38470  -1.76232
H     1.72795  -2.22261  -0.10348
H    -0.74070  -2.61476  -0.11847
H    -0.85751  -1.77461  -1.77264
H    -1.83271   2.24740  -1.75321
H    -1.66151   0.73686  -2.66541
H    -3.30759   1.37820  -2.31448
24

C     2.79152   1.47766  -1.12611
C     2.50251   0.61883   0.06150
O     3.31841   0.22506   0.87323
C     1.07448   0.24051   0.26518
C     1.09480  -1.85407  -0.91559
C    -0.23041  -2.07459  -0.92154
C    -1.07259   0.25427   0.03858
C    -2.33232   0.48573  -0.63810
C    -2.28874   1.25872  -1.92699
O    -3.37112   0.04608  -0.14671
O     0.10842   0.71495  -0.47263
C    -0.81031  -0.35398   1.29829
O    -1.45488  -0.84439   2.19152
O     0.63228  -0.27260   1.38637
H     2.42213   1.00285  -2.04609
H     3.86831   1.65885  -1.18745
H     2.25077   2.43385  -1.01332
H     1.59648  -1.38353  -1.76106
H     1.72700  -2.22218  -0.10320
H    -0.74153  -2.61397  -0.11861
H    -0.85746  -1.77452  -1.77309
H    -1.83250   2.24724  -1.75234
H    -1.66156   0.73731  -2.66550
H    -3.30761   1.37870  -2.31409
24

C     2.79049   1.47763  -1.12485
C     2.50156   0.61569   0.06100
O     3.31777   0.22652   0.87434
C     1.07688   0.21633   0.25072
C     1.09397  -1.82746  -0.90129
C    -0.23787  -2.05794  -0.91386
C    -1.06847   0.24014   0.02988
C    -2.33208   0.48276  -0.63938
C    -2.28877   1.25887  -1.92623
O    -3.37047   0.04612  -0.14599
O     0.10807   0.71570  -0.47535
C    -0.80493  -0.35670   1.29820
O    -1.45440  -0.84166   2.19084
O     0.63128  -0.27531   1.38792
H     2.42227   1.00322  -2.04608
H     3.86795   1.65946  -1.18673
H     2.24998   2.43353  -1.01261
H     1.59601  -1.38236  -1.75980
H     1.72606  -2.22174  -0.10292
H    -0.74236  -2.61317  -0.11875
H    -0.85741  -1.77442  -1.77355
H    -1.83229   2.24708  -1.75146
H    -1.66161   0.73777  -2.66559
H    -3.30763   1.37920  -2.31369
24

C     2.78946   1.47760  -1.12359
C     2.50060   0.61254   0.06049
O     3.31714   0.22799   0.87544
C     1.07929   0.19214   0.23627
C     1.09315  -1.80085  -0.88699
C    -0.24534  -2.04129  -0.90618
C    -1.06434   0.22601   0.02117
C    -2.33183   0.47980  -0.64067
C    -2.28879   1.25902  -1.92547
O    -3.36981   0.04617  -0.14527
O     0.10772   0.71644  -0.47807
C    -0.79954  -0.35942   1.29811
O    -1.45392  -0.83894   2.19017
O     0.63028  -0.27801   1.38948
H     2.42240   1.00358  -2.04607
H     3.86758   1.66007  -1.18600
H     2.24919   2.43320  -1.01189
H     1.59554  -1.38120  -1.75854
H     1.72511  -2.22131  -0.10263
H    -0.74319  -2.61238  -0.11889
H    -0.85736  -1.77433  -1.77400
H    -1.83208   2.24692  -1.75059
H    -1.66166   0.73823  -2.66568
H    -3.30765   1.37970  -2.31330
24

C     2.78844   1.47758  -1.12233
C     2.49965   0.60940   0.05999
O     3.31650   0.22945   0.87655
C     1.08170   0.16796   0.22181
C     1.09233  -1.77424  -0.87269
C    -0.25280  -2.02463  -0.89849
C    -1.06021   0.21187   0.01247
C    -2.33158   0.47683  -0.64196
C    -2.28882   1.25918  -1.92471
O    -3.36915   0.04621  -0.14454
O     0.10738   0.71718  -0.48078
C    -0.79416  -0.36213   1.29802
O    -1.45343  -0.83622   2.18950
O     0.62929  -0.28072   1.39104
H     2.42253   1.00394  -2.04606
H     3.86722   1.66068  -1.18527
H     2.24839   2.43288  -1.01118
H     1.59506  -1.38003  -1.75728
H     1.72417  -2.22088  -0.10235
H    -0.74402  -2.61159  -0.11903
H    -0.85731  -1.77423  -1.77446
H    -1.83187   2.24676  -1.74972
H    -1.66171   0.73868  -2.66578
H    -3.30767   1.38020  -2.31291
24

C     2.78741   1.47755  -1.12108
C     2.49869   0.60626   0.05949
O     3.31586   0.23092   0.87765
C     1.08410   0.14377   0.20735
C     1.09151  -1.74764  -0.85839
C    -0.26026  -2.00798  -0.89081
C    -1.05609   0.19774   0.00376
C    -2.33134   0.47387  -0.64324
C    -2.28885   1.25933  -1.92395
O    -3.36849   0.04625  -0.14382
O     0.10703   0.71792  -0.48350
C    -0.78878  -0.36485   1.29794
O    -1.45295  -0.83350   2.18882
O     0.62829  -0.28342   1.39260
H     2.42266   1.00430  -2.04604
H     3.86685   1.66128  -1.18454
H     2.24760   2.43256  -1.01047
H     1.59459  -1.37886  -1.75602
H     1.72322  -2.22044  -0.10206
H    -0.74486  -2.61080  -0.11917
H    -0.85726  -1.77414  -1.77491
H    -1.83166   2.24660  -1.74884
H    -1.66177   0.73914  -2.66587
H    -3.30769   1.38070  -2.31251
24

C     2.78638   1.47753  -1.11982
C     2.49773   0.60311   0.05899
O     3.31523   0.23238   0.87876
C     1.08651   0.11959   0.19289
C     1.09069  -1.72103  -0.84409
C    -0.26773  -1.99133  -0.88312
C    -1.05196   0.18361  -0.00494
C    -2.33109   0.47090  -0.64453
C    -2.28888   1.25948  -1.92319
O    -3.36784   0.04630  -0.14309
O     0.10668   0.71867  -0.48622
C    -0.78340  -0.36757   1.29785
O    -1.45247  -0.83078   2.18815
O     0.62729  -0.28613   1.39416
H     2.42279   1.00467  -2.04603
H     3.86649   1.66189  -1.18382
H     2.24681   2.43224  -1.00975
H     1.59412  -1.37769  -1.75476
H     1.72228  -2.22001  -0.10178
H    -0.74569  -2.61001  -0.11931
H    -0.85721  -1.77404  -1.77537
H    -1.83145   2.24644  -1.74797
H    -1.66182   0.73960  -2.66596
H    -3.30771   1.38121  -2.31212
24

C     2.78535   1.47750  -1.11856
C     2.49678   0.59997   0.05848
O     3.31459   0.23385   0.87986
C     1.08891   0.09541   0.17843
C     1.08987  -1.69442  -0.82979
C    -0.27519  -1.97467  -0.87544
C    -1.04783   0.16948  -0.01365
C    -2.33084   0.46794  -0.64581
C    -2.28891   1.25963  -1.92243
O    -3.36718   0.04634  -0.14237
O     0.10633   0.71941  -0.48893
C    -0.77801  -0.37029   1.29776
O    -1.45198  -0.82805   2.18747
O     0.62630  -0.28884   1.39572
H     2.42292   1.00503  -2.04602
H     3.86613   1.66250  -1.18309
H     2.24602   2.43192  -1.00904
H     1.59365  -1.37652  -1.75350
H     1.72133  -2.21958  -0.10149
H    -0.74652  -2.60922  -0.11945
H    -0.85715  -1.77395  -1.77582
H    -1.83124   2.24628  -1.74710
H    -1.66187   0.74005  -2.66605
H    -3.30773   1.38171  -2.31172
24

C     2.78432   1.47747  -1.11730
C     2.49582   0.59683   0.05798
O     3.31395   0.23531   0.88097
C     1.09132   0.07122   0.16398
C     1.08904  -1.66781  -0.81549
C    -0.28266  -1.95802  -0.86776
C    -1.04371   0.15535  -0.02235
C    -2.33059   0.46497  -0.64710
C    -2.28893   1.25978  -1.92167
O    -3.36652   0.04639  -0.14164
O     0.10598   0.72015  -0.49165
C    -0.77263  -0.37301   1.29768
O    -1.45150  -0.82533   2.18680
O     0.62530  -0.29154   1.39727
H     2.42306   1.00539  -2.04601
H     3.86576   1.66311  -1.18236
H     2.24523   2.43160  -1.00833
H     1.59317  -1.37535  -1.75224
H     1.72038  -2.21914  -0.10121
H    -0.74735  -2.60843  -0.11958
H    -0.85710  -1.77385  -1.77628
H    -1.83103   2.24612  -1.74622
H    -1.66192   0.74051  -2.66614
H    -3.30775   1.38221  -2.31133
24

C     2.78329   1.47745  -1.11604
C     2.49486   0.59368   0.05748
O     3.31332   0.23677   0.88207
C     1.09372   0.04704   0.14952
C     1.08822  -1.64120  -0.80119
C    -0.29012  -1.94137  -0.86007
C    -1.03958   0.14121  -0.03106
C    -2.33035   0.46201  -0.64838
C    -2.28896   1.25993  -1.92090
O    -3.36586   0.04643  -0.14092
O     0.10563   0.72089  -0.49437
C    -0.76725  -0.37572   1.29759
O    -1.45102  -0.82261   2.18613
O     0.62430  -0.29425   1.39883
H     2.42319   1.00576  -2.04600
H     3.86540   1.66372  -1.18163
H     2.24444   2.43128  -1.00761
H     1.59270  -1.37418  -1.75098
H     1.71944  -2.21871  -0.10093
H    -0.74818  -2.60764  -0.11972
H    -0.85705  -1.77376  -1.77673
H    -1.83082   2.24596  -1.74535
H    -1.66197   0.74097  -2.66623
H    -3.30777   1.38271  -2.31093
24

C     2.78226   1.47742  -1.11478
C     2.49391   0.59054   0.05698
O     3.31268   0.23824   0.88318
C     1.09613   0.02285   0.13506
C     1.08740  -1.61460  -0.78690
C    -0.29758  -1.92472  -0.85239
C    -1.03545   0.12708  -0.03976
C    -2.33010   0.45904  -0.64967
C    -2.28899   1.26009  -1.92014
O    -3.36520   0.04648  -0.14019
O     0.10529   0.72164  -0.49708
C    -0.76187  -0.37844   1.29750
O    -1.45053  -0.81989   2.18545
O     0.62331  -0.29695   1.40039
H     2.42332   1.00612  -2.04599
H     3.86504   1.66433  -1.18091
H     2.24364   2.43095  -1.00690
H     1.59223  -1.37301  -1.74972
H     1.71849  -2.21828  -0.10064
H    -0.74901  -2.60685  -0.11986
H    -0.85700  -1.77366  -1.77719
H    -1.83061   2.24580  -1.74448
H    -1.66202   0.74142  -2.66632
H    -3.30779   1.38321  -2.31054
24

C     2.78123   1.47739  -1.11352
C     2.49295   0.58740   0.05647
O     3.31205   0.23970   0.88429
C     1.09853  -0.00133   0.12060
C     1.08658  -1.58799  -0.77260
C    -0.30505  -1.90806  -0.84470
C    -1.03133   0.11295  -0.04847
C    -2.32985   0.45608  -0.65096
C    -2.28902   1.26024  -1.91938
O    -3.36455   0.04652  -0.13947
O     0.10494   0.72238  -0.49980
C    -0.75649  -0.38116   1.29741
O    -1.45005  -0.81716   2.18478
O     0.62231  -0.29966   1.40195
H     2.42345   1.00648  -2.04597
H     3.86467   1.66493  -1.18018
H     2.24285   2.43063  -1.00619
H     1.59176  -1.37184  -1.74846
H     1.71755  -2.21784  -0.10036
H    -0.74984  -2.60606  -0.12000
H    -0.85695  -1.77357  -1.77764
H    -1.83040   2.24564  -1.74360
H    -1.66208   0.74188  -2.66641
H    -3.30781   1.38371  -2.31014
24

C     2.78020   1.47737  -1.11226
C     2.49200   0.58425   0.05597
O     3.31141   0.24117   0.88539
C     1.10094  -0.02552   0.10614
C     1.08576  -1.56138  -0.75830
C    -0.31251  -1.89141  -0.83702
C    -1.02720   0.09882  -0.05717
C    -2.32961   0.45311  -0.65224
C    -2.28905   1.26039  -1.91862
O    -3.36389   0.04657  -0.13874
O     0.10459   0.72312  -0.50252
C    -0.75110  -0.38388   1.29733
O    -1.44957  -0.81444   2.18410
O     0.62131  -0.30237   1.40351
H     2.42358   1.00684  -2.04596
H     3.86431   1.66554  -1.17945
H     2.24206   2.43031  -1.00548
H     1.59128  -1.37067  -1.74720
H     1.71660  -2.21741  -0.10007
H    -0.75067  -2.60527  -0.12014
H    -0.85690  -1.77348  -1.77810
H    -1.83018   2.24548  -1.74273
H    -1.66213   0.74234  -2.66650
H    -3.30783   1.38421  -2.30975
24

C     2.77918   1.47734  -1.11100
C     2.49104   0.58111   0.05547
O     3.31077   0.24263   0.88650
C     1.10335  -0.04970   0.09169
C     1.08494  -1.53477  -0.74400
C    -0.31997  -1.87476  -0.82934
C    -1.02307   0.08469  -0.06588
C    -2.32936   0.45015  -0.65353
C    -2.28907   1.26054  -1.91786
O    -3.36323   0.04661  -0.13802
O     0.10424   0.72386  -0.50523
C    -0.74572  -0.38660   1.29724
O    -1.44908  -0.81172   2.18343
O     0.62032  -0.30507   1.40507
H     2.42372   1.00721  -2.04595
H     3.86394   1.66615  -1.17872
H     2.24127   2.42999  -1.00476
H     1.59081  -1.36950  -1.74594
H     1.71566  -2.21698  -0.09979
H    -0.75150  -2.60447  -0.12028
H    -0.85685  -1.77338  -1.77855
H    -1.82997   2.24532  -1.74185
H    -1.66218   0.74279  -2.66659
H    -3.30785   1.38472  -2.30935
24

C     2.77815   1.47732  -1.10974
C     2.49008   0.57796   0.05497
O     3.31014   0.24409   0.88760
C     1.10575  -0.07389   0.07723
C     1.08412  -1.50817  -0.72970
C    -0.32744  -1.85810  -0.82165
C    -1.01895   0.07055  -0.07458
C    -2.32911   0.44718  -0.65481
C    -2.28910   1.26069  -1.91710
O    -3.36257   0.04666  -0.13730
O     0.10389   0.72460  -0.50795
C    -0.74034  -0.38932   1.29715
O    -1.44860  -0.80900   2.18276
O     0.61932  -0.30778   1.40663
H     2.42385   1.00757  -2.04594
H     3.86358   1.66676  -1.17800
H     2.24048   2.42967  -1.00405
H     1.59034  -1.36833  -1.74468
H     1.71471  -2.21654  -0.09951
H    -0.75233  -2.60368  -0.12042
H    -0.85680  -1.77329  -1.77900
H    -1.82976   2.24516  -1.74098
H    -1.66223   0.74325  -2.66669
H    -3.30787   1.38522  -2.30896
