13

N 4.165092911 -0.447210982 0.355931994
C 1.938649169 0.323467973 0.331108987
C -0.316016727 -1.256479713 0.968326885
C -2.128785644 -1.597816388 -1.253122293
C -0.382215174 4.294263156 0.154162005
O 1.504002655 2.873123858 -0.501993405
H 5.389241527 0.932733364 -0.193663158
H 0.449691569 -3.067088674 1.573703426
H -1.307478508 -0.453665587 2.591334664
H -3.675488607 -2.846232489 -0.714567487
H -1.159174445 -2.439635161 -2.865619227
H -1.608775005 3.168538035 1.455253012
H -2.950342093 0.189142385 -1.872520849

