15

O 4.396627126 1.525211523 2.558142173
C 2.761710141 2.426064074 0.659787880
C 1.538458012 0.319416136 -0.896135132
C -0.453375514 -1.097548870 0.531313621
O 0.481917805 -2.210482946 2.694979981
C -2.822635327 -1.258329320 -0.137790439
C -5.181055237 -1.431612859 -0.817818136
H 3.495916173 0.268818190 3.513326031
H 3.916383259 3.598559369 -0.583997182
H 1.277669779 3.637888160 1.460646460
H 3.012563102 -1.003933860 -1.490357207
H 0.679193950 1.119294931 -2.590136105
H -5.837082033 -2.953246772 -2.028493665
H -0.871986681 -3.036504477 3.577179347
H -6.577882037 -0.055782391 -0.212321596

