15

C 0.362634116 2.269681054 1.032119503
C -0.800833882 0.190337505 -0.646932602
C -3.127359523 -0.953955253 0.607587162
N 1.049272509 -1.805442317 -1.221332092
C 3.572390044 -1.297875241 -0.609354245
C 3.970508814 1.202114598 -0.584855288
N 2.665599030 3.130393063 -0.331327836
H 0.839088742 1.510796541 2.894860547
H -1.370740964 1.104847900 -2.418761529
H -0.973596461 3.820774815 1.254353223
H -3.976485923 -2.392926025 -0.600227303
H -2.614020561 -1.844277134 2.395391948
H -4.553821197 0.492293252 0.966708353
H 0.688649364 -2.726250924 -2.852554473
H 4.879133316 -2.781135109 -0.119279551

