13

C -2.557425494 -0.046180050 0.859251326
C 0.096112359 -1.053940397 0.385469113
C 0.784156255 -1.060745396 -2.408768677
N 1.940427495 0.369769400 1.829188370
C 2.730122727 2.484319681 1.937130150
O 3.638081516 4.478123153 2.208182677
H -2.995450233 -0.050291962 2.872386260
H -3.947901869 -1.217297016 -0.114929741
H -2.735129632 1.887294236 0.156630932
H 0.203256561 -2.988455091 1.096747418
H -0.522628081 -2.257234335 -3.464508830
H 0.682193058 0.849512093 -3.186036237
H 2.695423557 -1.776047193 -2.691539962

