13

C -3.206369142 -0.360348228 0.853999456
C -0.386512979 -0.806199211 0.482375062
C 0.537413430 -0.436077679 -2.084503824
N 1.019796580 1.301796101 1.557686958
C 3.356518692 1.348975230 0.610319517
O 5.043449028 2.842471348 0.883225771
H -3.580070137 -0.278067341 2.877450670
H -4.323364202 -1.875648232 0.016621918
H -3.770094609 1.442721217 0.031099601
H 0.148038820 -2.641769810 1.265894423
H 1.453482074 -1.855164546 -3.243728839
H -0.014912925 1.297332511 -3.023267380
H 3.733861662 -0.361196148 -0.747976201

