15

C -1.178925031 2.707399696 -0.635954295
C -0.250597753 0.059444831 -0.201925740
C -2.022748350 -1.571065671 1.309177730
N 1.001266682 -1.163730821 -2.229766240
C 2.945919094 -1.607021547 -0.413906808
C 4.679217054 0.351360841 0.685257986
N 2.521508603 0.745854152 1.693466483
H -1.653220664 3.590888536 1.162191639
H -2.880859566 2.622844656 -1.808358070
H 0.236098225 3.861938303 -1.582196139
H -3.888368580 -1.518267574 0.425456020
H -1.399235841 -3.528455310 1.378070304
H -2.188265209 -0.843426891 3.228864045
H 1.560435962 0.059975258 -3.593907241
H 2.993814392 -3.486603905 0.400415864

