14

C -2.289969589 -0.157095635 2.390482515
C -1.823410476 0.032977119 -0.405370159
H -2.849006361 -1.355614575 -1.520724218
N -1.622276625 2.565081360 -1.494024579
H -2.460228867 2.656423786 -3.209698689
C 0.585551595 0.904156169 -1.534334309
C 2.854121283 1.700452517 -0.020793412
H 2.292994587 2.649656998 1.717008747
H 4.014813140 3.016546834 -1.106326837
H 4.023207323 0.070045307 0.466603219
H 1.048208178 0.052518021 -3.346956848
H -1.322669903 1.346877918 3.409615782
H -4.306239088 0.011586516 2.795733073
H -1.638033653 -1.973827668 3.123229376

