16

C -2.387425921 -0.339745659 2.392173177
C -2.207476864 -0.012137049 -0.425489808
N -1.610178145 2.507221027 -1.367304081
C 0.213927334 0.454506043 -1.781772553
C 2.711368102 0.558733112 -0.493063863
C 3.411894301 -3.204647545 0.031149546
O 3.619042223 -4.181493844 -1.930220801
H -0.933443750 0.746952385 3.366385633
H -4.214491429 0.324041241 3.083336010
H -2.194976836 -2.329331752 2.915569885
H -3.606165119 -1.082139325 -1.484473280
H -2.579069396 2.898722977 -2.969441725
H 0.287224425 -0.323445108 -3.679446185
H 2.721904610 1.827130685 1.136916061
H 4.294044855 0.984714571 -1.738994539
H 3.158140592 -1.787927996 1.533461198

