12

O 3.002665170 -2.224616264 1.511072838
C 2.598801463 0.065510720 1.414270087
C 0.596315116 1.280679829 -0.364773154
C -0.744513410 -0.750442237 -1.989565741
C -2.477855552 -0.568880583 0.053647832
O 0.162555281 1.187900437 2.420758233
H 4.006116999 1.542390419 1.815209216
H 0.564971892 3.198615332 -1.086217033
H 0.385146688 -2.466041286 -2.091219363
H -1.317632743 0.096456478 -3.765987251
H -2.518941505 -1.973034512 1.529989526
H -3.954625042 0.845727217 0.049692219

