13

O -0.306325946 2.401154309 0.162261315
C -2.115804473 -0.313755632 0.522452695
C -2.637040317 -0.936212066 -2.233796705
C -0.291111327 -1.897806442 -1.067462786
O 1.964044348 -0.568757051 -1.700287865
C 2.259528425 1.374074988 -0.042066173
O 3.112095336 0.763417853 2.319527910
H -0.520329493 3.164186865 1.804777417
H 2.060913787 -0.585989842 2.963549143
H -4.202336881 -2.223215467 -2.529708994
H -2.430200590 0.511268068 -3.664904724
H 0.045894834 -3.869336127 -0.637869381
H 3.497775437 2.809593609 -0.839148797

