12

C 2.638152969 2.933586591 -1.287797331
C 1.255076081 0.888263611 -0.902742069
C -1.548913999 0.464186864 -1.279264745
H -2.669300096 1.734607597 -0.097142449
H -2.103330353 0.803378587 -3.239690022
C -1.810323763 -2.260480828 -0.513325261
H -3.536624162 -3.341345609 -0.506345917
C 0.448151801 -3.092655497 0.155600673
H 1.062223464 -4.920862702 0.819448761
O 2.331882429 -1.324058549 -0.027734868
H 1.764583717 4.644250790 -1.979156469
H 4.648691798 2.927868960 -0.926626034

