12

C -3.350303969 -0.901548801 -1.177155794
C -2.890249785 1.923396017 -0.796154070
C -0.308713049 2.466203897 0.230701223
C 1.434751770 3.856302554 -0.904302113
H 3.276723948 4.162802714 -0.065115673
H 1.081406943 4.743112096 -2.719955849
H 0.133562876 1.607345767 2.047595829
H -3.145498740 2.931738382 -2.581077608
H -4.307589335 2.666980514 0.516404929
H -5.256658058 -1.256540864 -1.879788452
H -2.008414304 -1.687527376 -2.532740304
H -3.131308503 -1.935998809 0.596123290

