13

C 3.834494548 -0.185483649 -0.101667360
C 1.047035943 -0.066999767 -0.074535371
N -0.407847325 1.852712626 -0.524028594
C -2.928923295 1.178335834 -1.022003742
C -2.969082242 -1.461324966 0.069967563
O -0.302706478 -2.203705802 -0.075311633
H 4.526988258 -1.254728693 1.518439728
H 4.645457380 1.705748020 -0.042451564
H 4.498614171 -1.135434912 -1.814807214
H -4.299850831 2.525292005 -0.306538654
H 0.277003293 3.608890501 -0.768225089
H -4.046358698 -2.850045314 -1.003105706
H -3.523592686 -1.606484468 2.085985483

