13

C 3.918411238 -0.245945380 -0.039071845
C 1.141258481 0.050430460 0.009839672
N -0.150168220 2.082236928 -0.312681322
C -2.856719070 1.457454108 -0.516472732
C -2.902200035 -1.378907245 -0.067740748
O -0.263867126 -1.990845918 0.507684013
H 4.556866604 -1.122040061 1.715966431
H 4.816746711 1.589372771 -0.254457141
H 4.487633539 -1.480834915 -1.591921085
H -3.970355009 2.675095716 0.704894546
H -0.942536847 2.969080277 -2.025223966
H -3.423886824 -2.509709815 -1.720725612
H -4.059953274 -1.988617420 1.531623874

