14

C -2.595040285 -1.641793112 -0.746509698
N -0.720313521 0.072928122 0.308982127
C -1.570847521 2.393155287 1.229191897
O -0.196606615 4.073908694 1.874760325
C 2.052207271 0.023834322 -1.453527427
O 1.806436276 -0.269493521 -3.640536309
C 3.710679295 -0.288123953 0.593504054
H -4.369461198 -1.498388165 0.291996493
H -2.920020965 -1.215298952 -2.738865242
H -1.907779453 -3.577855661 -0.600392862
H -3.652138131 2.526337591 1.357277629
H 5.615158247 -0.918251334 0.177077353
H 1.114528267 -0.962788154 1.433812009
H 3.549511848 1.190929271 2.009983646

