14

O 2.089846420 -2.278256272 2.282243009
C 1.803711857 -1.933232477 -0.349278968
C -0.913963111 -1.424532396 -1.122242224
C -2.073716361 0.859375878 0.197890098
C -0.381617076 3.139984746 0.122670456
C 1.949284831 3.622870336 -0.396520628
H 2.386950409 -0.662661152 3.048862511
H 2.478354307 -3.656327068 -1.262721100
H -0.966326647 -1.153586450 -3.171154720
H -2.066405917 -3.081709485 -0.686468337
H -3.892081306 1.336069119 -0.650246256
H -2.450574294 0.416227316 2.180157018
H -1.100374710 5.012567502 0.694691027
H 3.033231755 -0.388700752 -1.020603002

