14

O 2.373851961 -2.126735707 2.095918035
C 1.683666249 -1.580811877 -0.339871930
C -1.084379558 -1.499174404 -0.964753526
C -2.228906131 0.846073037 0.234213015
C -0.167510313 2.813457835 0.115336864
C 2.219672533 2.365025372 -0.447130347
H 1.747237940 -0.821973246 3.198443990
H 2.794103997 -2.786052856 -1.596098420
H -1.278244955 -1.411148297 -3.017092057
H -1.977802196 -3.245783878 -0.316252716
H -3.931123425 1.470104105 -0.751476182
H -2.793807763 0.509315017 2.197218637
H -0.651174073 4.761882368 0.551825899
H 3.190734021 0.513909489 -1.093002416

