13

C 0.859805072 -2.339035024 0.412312162
C 2.281669118 -0.438524459 -1.162522360
C 0.729558175 1.929109113 -1.475017431
C -1.367699015 2.352786957 -0.156665552
N -2.297982727 0.648929324 1.612535144
C -1.242216703 -1.755343146 1.660199612
H 1.589028085 -4.244778712 0.560899079
H 2.742752655 -1.243441188 -3.015233096
H 4.114810266 0.002397382 -0.292090545
H 1.353249621 3.355117309 -2.802680953
H -2.457442201 4.071323454 -0.369036640
H -4.113603487 0.820057064 2.125131935
H -2.239103963 -3.122944613 2.810016133

