13

C 1.004607094 -2.092443282 0.558797609
C 2.039305109 -0.213956927 -1.241378647
C 0.953658339 2.181951445 -1.008777512
C -1.250611811 2.401445950 0.341519828
N -2.900993483 0.268175929 0.484631357
C -1.215444669 -1.377032410 1.778419895
H 2.259610383 -3.520666256 1.317806711
H 0.470823582 -2.454418450 -1.680909536
H 3.714865983 -0.649444029 -2.320356404
H 1.964485410 3.824976942 -1.693510740
H -1.930941694 4.172069988 1.113856375
H -3.335121853 -0.392896398 -1.272514625
H -1.794806391 -2.137752584 3.586119717

