11

O -1.739828116 4.003737304 0.362230905
C -0.894542774 1.766283961 0.140740150
C -1.880428502 -0.821450057 -0.427295744
C 0.554422760 -2.315983105 -0.287977972
C 2.447935065 -0.733699018 0.267575506
N 1.549757894 1.753635910 0.527742738
H -2.794016786 -0.876915616 -2.277902100
H -3.291106427 -1.394181712 0.967561545
H 0.707105564 -4.326949201 -0.587873710
H 4.427800917 -1.155581679 0.515519876
H 0.788469479 4.106866878 0.780581252

