17

C -4.281701334 -1.019066390 -0.002979701
C -1.826035211 0.294352207 0.338816197
O -2.013265364 2.551309150 1.381252093
C 0.629596633 -0.938656295 0.391211329
C 2.518525878 0.345506489 -1.442776379
C 4.406158262 0.079801207 0.748333492
O 2.274043166 -0.231173920 2.453684292
H -5.665662349 0.215704659 -0.894019282
H -4.057170917 -2.724394664 -1.124697243
H -4.997009273 -1.531044087 1.874732149
H -1.169487493 0.240469482 -3.402701312
H -0.350582274 3.022628690 2.003063243
H 0.490019363 -2.991569945 0.177639944
H 0.436356130 -0.035836558 -3.604892294
H 2.024325591 2.353962046 -1.589908300
H 5.570420663 1.696017027 1.276673761
H 5.539711631 -1.649058410 0.732243362

