15

C 4.010986766 0.244088421 -0.817710856
C 1.185515961 -0.055957965 -0.923620934
C -0.298334937 -2.066428424 0.001324244
C -2.804433750 -1.201744344 1.116574538
C -2.968012752 1.467185461 0.041901483
O -1.275363689 3.379128604 1.131597956
C -0.529325912 2.077576372 -1.002477713
H 4.613811479 1.796255508 -2.034859264
H 4.976373275 -1.479350308 -1.406263185
H 4.576743065 0.670257057 1.118502210
H -0.046648059 -4.001193714 -0.642686501
H -4.387091341 -2.311982536 0.382529304
H -2.898223087 -1.335761944 3.179476733
H -4.728886975 2.245331725 -0.654143627
H 0.566920332 0.398697819 -3.182196805

