14

C 4.023147532 0.140419142 0.614022171
N 2.180061057 0.156379070 -1.404175623
C -0.347370628 0.187489083 -0.820418966
N -2.054380381 1.065086626 -2.371859736
N -4.298350596 0.651371418 -1.203188586
C -4.230788238 -0.295253531 1.161675082
C -1.560764887 -0.739556186 1.433706903
H 3.875614837 -1.606020899 1.701962653
H 5.907425538 0.188208899 -0.210601341
H 3.830981282 1.742513360 1.915676165
H 2.602051036 1.256799870 -2.896727634
H -5.871081362 1.128691500 -2.148525251
H -3.303691739 -2.524722612 1.112436359
H -0.683364481 -1.375006510 3.162641107

