13

C 3.178289267 0.751407906 -0.333379360
C 1.119448831 0.492230003 1.675579658
C -1.153171088 -0.762459176 0.694371984
O -3.313562685 -0.147072320 1.529402010
C -2.740543924 0.036187292 -3.504760356
N -4.724997805 -0.885003720 -3.240868682
H 4.856438991 1.602563947 0.500148106
H 3.703200269 -1.085970783 -1.105805216
H 2.516219581 1.925651481 -1.887464973
H 0.592576576 2.297354752 2.515885912
H 1.787878409 -0.739885150 3.210230004
H -0.977466261 -2.422239703 -0.492575785
H -4.576422605 -0.788856287 0.264522030

