8

C -1.925066970 -0.238352762 -0.073137352
C 0.649874150 0.370947626 -0.243699818
O 1.004150857 2.266918086 -1.679903483
C 2.775407746 -0.907508279 0.895286532
N 4.414505560 -1.984522308 1.819230080
H -3.011761329 1.261561527 0.827244902
H -1.327605470 1.668682951 -2.041567187
H -2.584907271 -2.134113973 0.323927385

