11

C 3.286596653 2.442078255 -0.515007817
O 0.884655859 2.205179335 -0.147257929
C -0.822461098 1.068190539 -1.489669271
C -3.471831746 1.266546397 -0.629140131
O -4.973613575 3.002856637 -2.046711475
H -4.117095587 4.601179548 -2.053022216
H -4.438188572 -0.544053720 -0.837849081
H -3.476625282 1.758421623 1.384416288
H -0.233942331 0.210167932 -3.255407838
H 4.139973198 1.610231058 -2.175661643
H 4.293476520 3.440183066 0.941781335

