16

C 3.526620405 1.406630019 -0.182051245
O 1.034843354 2.045391426 0.056728029
C -0.553515295 0.688691316 -1.226176235
C 1.197752807 -3.192940975 0.144812755
C -3.265375765 0.836039177 -0.512696436
O -4.730850854 2.333934029 -2.183428625
H 4.201435916 1.366361448 -2.130984020
H 4.675433067 2.514956564 1.103084993
H 2.742325104 -1.227909038 0.098906527
H -0.046468781 0.171673871 -3.147870592
H 2.791370848 -4.456348840 0.527241658
H 0.196769755 -3.978450747 -1.471969567
H -0.030205080 -3.231577654 1.798007511
H -4.076386616 -1.060818660 -0.610447905
H -3.411086859 1.493036517 1.445128445
H -4.139864274 4.044983090 -2.082517779

