14

C 1.759502263 -2.582295235 1.866813876
C -0.139808817 1.260382678 -1.038037086
C 2.030924439 2.362138645 -2.198646533
O -0.511558046 3.226781964 -2.716844585
C -1.602764466 -0.034592930 0.516146452
O -0.812928337 -1.924796607 2.051725353
N -4.178937687 0.424727568 0.819713682
H 2.972718416 -0.997098040 2.408460254
H 2.058916536 -4.146748376 3.165565741
H 2.237535641 -3.168674927 -0.058968866
H 3.190198964 3.704706665 -1.164219258
H 2.946613871 1.422732167 -3.777938012
H -5.210807992 -1.179796705 0.769642724
H -4.838307049 1.710225424 -0.421452219

