10

O 2.779627844 1.383935164 -0.004974591
C 2.525748355 -1.096185773 -0.790301928
C 1.868999533 2.004045277 2.350610900
N 0.500856319 -2.181313927 -1.369675725
C -1.759770585 -0.867640897 -1.104055632
C -2.232656425 0.858779404 0.647679497
O -0.559225102 1.610545054 2.534356284
H 4.333195747 -2.057394947 -0.906715482
H -3.267695933 -1.413915461 -2.373907670
H -4.060319465 1.727752086 0.910158148

