15

O -0.691685172 3.988850968 1.832347199
C -0.096224457 2.361253516 0.342700661
C -2.081068794 0.694474521 -0.881823462
C -2.380938982 -1.859576735 0.336695414
C -1.370883638 -2.595902907 2.501870645
C 3.519208238 0.202255743 -1.791169613
C 2.618850399 1.990881123 -0.285341350
H -1.658801063 0.445427213 -2.889789542
H -3.872412072 1.714366513 -0.767662839
H -0.170053015 -1.372203933 3.624842511
H -3.588769624 -3.162156222 -0.693719953
H -1.728650991 -4.468746974 3.244185642
H 2.302374053 -1.171169614 -2.700954237
H 5.527141380 0.027724266 -2.148682911
H 3.866183233 3.329854808 0.639308445

