15

O -0.042451488 4.760091172 -0.411466850
C -0.270910665 2.532552030 -0.122411054
C -2.720918759 1.033626106 -0.617984454
C -2.028183485 -1.623041568 0.033702944
C 0.318660567 -1.712412971 1.413722539
C 3.288279076 -0.441361259 -1.201449981
C 1.786733481 0.699099134 0.783600940
H -3.382943791 1.237096508 -2.563697741
H -4.182598843 1.879466027 0.577334934
H -1.464982097 -1.449224521 2.781484292
H -3.020420772 -3.273267016 -0.655341770
H 1.269585587 -3.463430741 1.872827079
H 2.356077292 -1.444742790 -2.718880160
H 5.319006019 -0.242129531 -1.246548333
H 2.908788660 1.537928246 2.286173053

