16

C -2.577798291 -0.732673123 2.219003664
C -2.457238243 -1.031238286 -0.558897311
N -1.586388194 2.483229215 -2.300294901
C -0.221840430 0.108326320 -1.797379517
C 2.256190829 0.645472581 -0.444998150
C 3.606792792 -1.702198359 0.401610794
O 2.728218280 -3.792509312 0.310721034
H -1.342305480 0.645579766 3.161438372
H -4.505554833 -0.545450057 2.920912500
H -1.945244747 -2.624978686 2.817209111
H -2.040064382 3.437790786 -0.707862853
H -3.157398572 2.196790482 -3.349375679
H 0.186901567 -0.784394512 -3.609068022
H 2.003652119 1.833015822 1.234248162
H 3.521700862 1.724912035 -1.676961426
H 5.534991454 -1.397608976 1.167755805

