9

O 4.220933487 -1.652424957 1.394019385
C 2.103045439 -0.982529896 0.976234727
N 1.203650284 1.347455513 0.293337783
C -1.405443932 1.258391511 0.007786371
C -2.080636217 -1.109872190 0.511361004
O 0.016614529 -2.514735976 1.105791383
H 2.341326373 2.843365340 0.065770595
H -2.524068029 2.871006609 -0.520469295
H -3.875421953 -2.060655953 0.532034740

