12

N -1.653704642 -1.698105155 -1.319163289
C 0.966518322 -1.535857503 -1.827416998
C -2.509293810 0.061317247 0.503402687
C -0.960273495 1.554722923 1.791863275
N 1.670541005 1.682927310 1.320618813
C 2.517311881 -0.043330475 -0.540068439
H -2.730449555 -1.748845644 -2.890039609
H 1.670641180 -2.759630006 -3.303612408
H -4.522615091 0.089761556 0.848575469
H -1.675441651 2.815257534 3.231519489
H 2.726468885 1.666458857 2.907093764
H 4.523769222 -0.036611459 -0.924346060

