15

O 3.526009003 1.589120927 2.626132685
C 2.038777706 2.252708233 0.517088840
C 1.427656944 0.011768440 -1.185140435
C -0.553668042 -1.789134869 -0.107760385
O 0.342425989 -2.698205555 2.264849327
C -3.041711636 -0.585596646 0.169045998
C -5.086475767 0.353525995 0.405653051
H 2.726782976 0.158502763 3.414985874
H 3.134291228 3.634737873 -0.552776620
H 0.278578002 3.183407232 1.107344644
H 3.156426062 -1.064673966 -1.527846841
H 0.734276991 0.689905503 -3.008461848
H -0.773845418 -3.383122200 -1.414501446
H -1.010454643 -3.555819319 3.113872642
H -6.899069413 1.202875609 0.609460297

