21

C 3.412217444 -1.592995395 1.397319867
C 1.700177070 -1.113617741 -0.870108898
C -0.336411482 0.924842548 -0.454516002
C 0.864712615 3.518774886 -0.000559359
C -2.010425805 1.086100494 -2.873717497
C -2.412288178 0.461930172 1.375396625
C -3.127119792 -2.188685541 1.790859112
H 4.783339244 -3.074129529 0.974496122
H 4.470753183 0.095393299 1.926196176
H 2.339925349 -2.200047198 3.053384550
H 2.859804899 -0.529320942 -2.481618318
H 0.812234146 -2.887270140 -1.445374242
H 2.226741752 3.979783930 -1.486541680
H 1.846401394 3.576587277 1.811190789
H -0.594468003 4.971798229 0.049304825
H -0.830490526 1.829922226 -4.393653831
H -2.719906168 -0.764344744 -3.441243448
H -3.607729378 2.364988012 -2.617673704
H -2.186975546 -2.530802257 3.622619910
H -2.480513905 -3.651786188 0.471400024
H -5.136140189 -2.402164575 2.200734378

