11

O 2.096939148 4.156909169 0.496860342
C 1.138390538 2.287652803 -0.325591610
C 2.517639313 0.330649745 -2.080389569
O 0.757811167 -1.190122037 -2.787928976
C -1.765177961 -0.741800368 -1.738835802
H -3.243141040 -1.153470761 -3.081008377
C -1.890459319 -1.190725634 1.011084716
H -0.286198927 -2.093408101 1.906955060
H -3.708447547 -1.623852166 1.839429004
C -1.564028104 1.463839039 -0.048512161
H -3.026185212 2.865480237 0.190149269

