13

O 2.204831172 4.034250410 0.950484128
C 1.320580338 2.139904491 0.095548597
C 2.815508868 0.042400673 -1.321510159
O 1.137831236 -1.515144574 -2.274132814
C -1.439254099 -0.920349422 -1.584992631
C -2.013859324 -1.115097321 1.131271638
C -1.421965996 1.430834594 -0.065322068
H 3.580619197 -1.258728940 1.833220517
H 4.393458433 -1.040433637 0.456539690
H -2.747259727 -1.369031366 -3.082607350
H -0.604518379 -1.947183115 2.366133980
H -3.953865315 -1.442764757 1.680522955
H -2.845230480 2.887209027 -0.184614129

