13

C -1.217787759 -1.322948240 -0.441747783
C -0.814885375 1.582707027 -0.459465572
O -2.471698994 3.073692548 0.976354573
C 1.782939308 1.215696324 0.795762197
C 1.588188423 -1.556853457 0.136859333
N 3.256820427 -3.236189059 -0.037145931
H -1.927525768 -2.238247917 -2.146104984
H 2.494074996 -4.902101709 -0.630828016
H -2.364042147 -1.878423994 1.183954254
H -0.633152644 2.306819672 -2.389531057
H -4.035699527 3.254640458 0.079760011
H 1.629298621 1.512630275 2.833452347
H 3.397248961 2.257851633 0.062227831

