13

C -1.409248763 -1.474668360 -0.481534833
C -0.692698311 1.313413117 -0.514689284
O -2.311223905 3.003252818 0.762255161
C 1.850529406 1.167382357 0.863175266
C 2.297706902 -1.536669197 0.249642723
N 3.512383473 -3.432751284 -0.118948962
H -2.414040918 -2.170143605 -2.143249892
H 1.084891863 -3.425760601 -0.617301281
H -2.402553651 -1.984689341 1.253575090
H -0.384240016 1.938047952 -2.466613514
H -3.978099617 2.823299472 0.074342336
H 1.558463258 1.382160201 2.896000203
H 3.365408739 2.417153788 0.242904810

