11

C -2.067845567 0.565410856 0.243894781
C -0.539971760 -1.578151596 -1.006548636
O 2.148716662 -1.125782947 -1.070889918
C 2.900514966 0.874810442 0.283567918
N 1.592502441 1.683681178 2.137610533
C -0.648376277 0.788718035 2.716006284
H -1.966048742 2.269627915 -0.921366737
H -4.024824853 -0.035532634 0.445478651
H -1.124523010 -1.768264375 -2.969876419
H 4.720128812 1.635332535 -0.256259221
H -0.823394736 -3.374024492 -0.035957539

