15

C 5.198897464 0.665944872 -0.705734775
C 2.796594353 -0.702077532 0.092404527
C 0.888496897 1.035905494 1.368564207
C -1.270414629 -0.141053202 2.632827966
C -3.393388704 1.616116137 2.960908799
H -4.565719517 1.060804374 1.324383506
H -4.558292440 1.216938611 4.612770504
H -3.002526370 3.649530366 2.770679802
H 0.433431949 2.701081359 0.195999181
H 1.749654503 1.844892864 3.109386621
H 1.900676483 -1.563177123 -1.559118879
H 3.230453834 -2.250998239 1.385117603
H 4.786333307 2.202050005 -2.023748317
H 6.518589517 -0.615644822 -1.637100393
H 6.164931752 1.487818511 0.924949865

