20

C 5.281701030 0.594045914 -0.525755823
C 2.824649662 -0.876147216 -0.239423198
C 0.700140921 0.698403280 0.898789763
C -1.659613910 -0.706298991 1.556707664
C -3.807083258 0.986235895 2.274398000
C -3.074026331 -1.518772319 -2.390478679
H 5.028388289 2.246013633 -1.739618168
H 6.765174683 -0.571512933 -1.358947032
H 5.966310047 1.267028712 1.303122216
H 2.229855662 -1.581959394 -2.090487302
H 3.114409041 -2.540625904 0.948243064
H 0.379220771 2.416967518 -0.240912340
H 1.317060836 1.398945580 2.758341723
H -2.347601171 -2.255512058 -0.326013605
H -5.616884002 0.002501978 2.300124334
H -3.414239224 1.539921152 4.231034016
H -3.989187094 2.741962201 1.173859148
H -5.107691288 -1.817327844 -2.355086546
H -2.611179963 0.413525499 -2.894071567
H -2.136423917 -2.853550189 -3.645787668

