14

O -0.045779976 3.428623611 -0.088206822
C -1.019784505 1.412473373 1.165762087
C -0.996494500 -0.911059452 -0.461040205
C 1.635793515 -1.812233521 -1.030883943
C 2.587651474 -2.066105640 -3.327550003
C -1.865301263 1.495683230 3.530255823
H -0.044204965 4.876803416 1.005197614
H -2.623933498 -0.180032375 4.413576250
H -1.987777456 -0.497904624 -2.226126004
H -2.043791527 -2.394778165 0.519037752
H 2.790804044 -2.276473505 0.604205535
H 1.492163256 -1.598500545 -4.996371755
H 4.496838282 -2.741452636 -3.624862826
H -1.830823059 3.223072923 4.631043872

