14

O -2.871207412 3.505306014 0.432686244
C -1.663494651 1.354641744 0.707464895
C -1.870703121 -0.960217805 -0.884046762
C 0.819371963 -1.714970016 0.064785178
C 2.834069342 -1.039458651 -1.708830107
C 0.734943270 0.707316060 1.704744746
H -1.818073436 4.900010651 0.957446163
H -0.972121398 0.201278282 3.219457140
H -1.734850880 -0.273314018 -2.837879181
H -3.462631539 -2.238032205 -0.663078762
H 0.819701909 -3.476695220 1.165807498
H 2.576816786 -1.550703456 -3.678371574
H 4.741031073 -1.305213935 -0.998002652
H 2.199626450 1.848525843 2.561755216

