11

N -4.350734503 0.478743594 1.067337422
C -0.420882788 -0.282969536 -1.131929829
N 1.443240231 -1.578682930 -1.655823894
N 3.687936876 -1.084334242 -0.225931744
C 4.191735517 1.018388243 0.892844647
C -2.475084741 1.015802493 -0.725027575
H -6.109310347 0.804060986 0.411334852
H -4.227170679 -1.270137085 1.811504956
H 4.835080569 -2.608049273 -0.402825983
H 6.084690711 0.773688476 1.727227044
H -2.680539167 2.774375388 -1.754521833

