11

N -3.907085429 -0.229385691 0.195764496
C -0.724374221 0.023419187 -0.357675002
N 0.786143623 -1.804149442 -0.604105002
N 3.314042846 -1.210029867 -0.130692268
C 4.226804866 1.042695261 0.096624607
C -2.241056258 1.934487179 -0.071991139
H -4.918422707 -0.847260995 -1.296141360
H -4.569849570 -0.742609681 1.912046379
H 4.309778583 -2.844273485 -0.045546803
H 6.263567198 0.786262960 0.455666731
H -2.560589122 3.931726890 -0.139764484

