10

O -2.522483211 2.523755752 1.352474247
C -0.991077316 0.718619778 0.403767066
C -1.342534382 -1.627729317 -0.595712331
N 0.964448278 -2.631389129 -1.268226005
C 2.638375635 -0.934588413 -0.686677549
N 1.542395578 1.165088532 0.348265810
H -4.238491235 1.948674600 1.260924538
H -3.090486431 -2.641133879 -0.864946488
H 4.653271833 -1.091340383 -0.955208255
H 2.393012027 2.745911710 0.960369153

