10

O -2.719838308 2.696728620 1.012606002
C -1.045212414 1.222014453 0.025329303
C -1.589058037 -1.356032035 -0.400457362
N 0.712660300 -2.669704157 -0.593263945
C 2.445726447 -0.986226427 -0.386663665
N 1.507139090 1.453691153 -0.049280108
H -2.944947548 0.156742275 1.541549264
H -3.287068744 -2.050935126 -1.298976857
H 4.456589383 -1.334506523 -0.469342868
H 2.472849970 2.960969875 0.586083893

