9

C -3.496272443 1.700940992 1.684758265
C -3.233015585 0.035801032 -0.583028244
C -4.014004659 -2.336867753 -0.723787839
H -4.927948211 -3.258340957 0.864371217
H -3.772151425 -3.445391435 -2.427468953
H -2.327929198 0.877780204 -2.225187925
H -1.650148064 2.354911690 2.341196266
H -4.603135206 3.386158517 1.234802778
H -4.423725383 0.715391162 3.239939900

