8

N 2.573635565 -1.116802893 -0.268027906
N 1.624685195 1.143885919 0.297172718
C -0.919864140 1.102784621 0.351112361
C -1.495913115 -1.346810096 -0.221312478
N 0.694043266 -2.633620385 -0.584350693
H 2.807365962 2.594307940 0.616194978
H -2.052343237 2.738339672 0.772621386
H -3.311338893 -2.250583898 -0.388672860

