16

C 4.114820678 0.597159578 1.129505462
C 1.497658655 1.101454386 0.836140410
C -0.045933894 -1.236494291 -2.019195948
C -2.654824492 -0.332657882 -1.296450746
C -2.705915467 0.086747897 1.585758670
O -0.178554099 0.228540530 2.521009489
H 5.449944802 2.036124908 0.580782153
H 2.556337087 -0.498491743 -0.831929911
H 4.667133295 -0.886381292 2.416999039
H 0.985228349 2.799304088 -0.212677091
H 0.441763336 -0.845387803 -3.984382616
H 0.274661072 -3.228836191 -1.563777356
H -4.168593799 -1.639721046 -1.816832226
H -3.064531440 1.444378375 -2.266185987
H -3.566335173 -1.494157767 2.584966570
H -3.720277063 1.813096521 2.095086215

