8

C -1.397333832 0.981561789 4.281554805
H -0.856916342 1.734007722 6.095072092
C -1.438551102 -0.927406963 2.739103197
H -0.958956621 -2.872481351 2.373046636
C -2.489292307 1.466160039 1.757865325
O -1.221047499 2.914292921 -0.069831560
H 0.564735449 2.694175733 0.164683320
H -4.504487194 1.736204453 1.476479323

