9

C 0.510796108 0.060539928 -1.869951256
O -0.767571244 -0.375936900 -3.586357483
C 1.957327770 0.604096763 0.064190822
C 4.744032997 0.975208152 -0.219212917
O 6.024389494 -1.174147275 0.743366517
H 7.803958834 -0.827899446 0.752205087
H 5.207961460 1.282837310 -2.214727308
H 5.306722270 2.673889731 0.824070880
H 1.073204095 0.623339220 1.906577436

