11

C -2.217355936 -2.930328646 -0.164145258
C -1.244695759 -0.547856775 -1.359116521
O 1.975530519 4.212139344 2.117913370
C 0.534873128 0.874558882 -0.430192996
C 2.366368684 2.249858715 0.472781187
H -4.237846573 -2.767721908 0.230264905
H -1.234230285 -3.332301814 1.598746360
H -1.971226668 -4.534900787 -1.440678348
H -2.119643376 0.017487998 -3.133825542
H 3.558543756 5.024505412 2.444981536
H 4.314385319 1.870914676 -0.053436088

