11

C -1.808194647 -2.108795233 0.238556191
C -0.505440095 0.124032798 -0.902560296
O 0.532267838 1.884546499 1.537507385
C 2.027356031 -0.127471627 -1.971385386
C 3.033310556 1.270432676 -0.222012357
H -3.444291387 -1.546590524 1.357423251
H -0.498254280 -3.187330360 1.404414655
H -2.443011402 -3.322800517 -1.304199398
H -1.782967313 1.403378367 -1.897427458
H 0.020518854 3.626327703 1.338677036
H 4.700622265 2.086638573 0.612352504

