12

O -4.221059191 2.281258934 -1.928967497
C -1.073952238 -1.564692626 1.255359200
C -0.851687924 0.161285026 -0.843873112
N -1.683806618 1.772585271 -2.359462661
O 3.265327558 1.300888352 3.067875272
C 3.520056952 0.173248485 1.116766572
C 1.448075416 -1.237687842 -0.174778766
H -4.598917867 3.539221609 -3.180301958
H -1.112197630 -0.759869193 3.140192521
H -2.088823568 -3.322445985 0.993772047
H 5.364190845 0.140766757 0.129202862
H 2.041504051 -2.719642608 -1.460366063

