15

C 5.354437590 -0.606172910 0.153818585
N 2.636910852 -0.477645834 0.123000799
C 1.567196816 1.615035271 -0.367755878
C -1.146540020 1.848348058 -0.432226928
C -2.337722968 -0.359104580 0.076111913
C -5.327229276 -0.970332413 0.192513392
N -2.154906138 -2.630529417 0.607953713
H 6.267783932 1.217454827 -0.241227962
H 6.003045775 -1.978790901 -1.246978661
H 6.002954350 -1.274808696 1.997257909
H 2.665829614 3.329795414 -0.764394747
H -2.144227504 3.572549972 -0.841917246
H -5.962438565 -0.504466716 -1.704359676
H -5.991931256 0.294800885 1.667802981
H -5.904564833 -2.893727127 0.644230029

