14

C -1.324172688 -1.944903179 -0.374380899
C 0.245040730 0.178713157 -1.649335992
C -1.228486973 2.037489990 0.074142252
C -0.954397543 -0.194248369 1.916767935
O 1.709000674 -0.310194802 2.361812856
C 2.698481889 -0.046392247 -0.154299729
H -3.267363455 -2.007719150 -1.047299994
H -0.509056464 -3.833991219 -0.258365907
H 0.381298128 0.405946733 -3.687523782
H -3.163458243 2.342489122 -0.554372626
H -0.325727821 3.812056336 0.606167260
H -1.969484264 -0.367121762 3.693172097
H 3.818246664 -1.709690821 -0.654002672
H 3.890079368 1.637566211 -0.272480819

