14

C -1.663533712 -1.761222178 -0.826960442
C 0.188845169 0.373250881 -1.585487324
C -1.200731942 2.249175976 0.152321450
C -0.643015559 0.457980531 2.270515879
O 1.714071206 -0.340917704 2.412655163
C 2.674082955 -0.122791002 -0.178765465
H -3.203363911 -1.961816361 -2.192335452
H -0.947521623 -3.628225196 -0.319132715
H 0.429106347 0.798969195 -3.586003801
H -3.026551459 0.004817498 0.272594845
H -0.338270803 4.127402248 0.432078376
H -1.716966398 0.129436243 3.990001433
H 3.642613325 -1.896457594 -0.583002733
H 3.998269420 1.451815241 -0.276395689

