17

C 3.691748075 -0.166748035 -0.488345557
C 0.914944332 -0.338238640 0.097425700
C 0.067809647 -0.587490662 2.787578130
C -3.255396802 0.020773230 -1.618305442
C -0.836981149 -1.459251597 -1.903040927
C -3.045087556 1.836220249 0.103406985
C -0.521708653 1.798582952 1.337252560
H 4.014170142 0.867346591 -2.246834095
H 4.712099441 0.808642797 1.016369411
H 4.525650558 -2.045787720 -0.694251042
H -1.496448418 -1.830593816 3.237913887
H 1.524650256 -0.479892964 4.222334775
H -4.946635959 -0.395007789 -2.692987190
H -0.038910387 -1.221234242 -3.799567477
H -1.125406797 -3.490050898 -1.636435228
H -4.524932179 3.152919789 0.617646175
H 0.395777966 3.542836636 1.890565428

