16

C -4.142966977 -0.647644178 0.282056761
C -1.848567171 0.888043741 -0.404292221
H -1.621805309 1.243539983 -2.411706539
C -0.920202703 2.933621305 1.303565773
H -1.902397589 3.222055759 3.075806755
H -0.149385477 4.637502862 0.473708835
C 0.588914004 0.528151164 1.023286583
C 3.017636487 0.568340933 -0.337344497
C 5.011053245 -0.838431211 0.230961193
H 4.979095709 -2.152632665 1.804130847
H 6.742977260 -0.725836888 -0.852219239
H 3.131475025 1.867445781 -1.928920103
H 0.507553716 -0.771061190 2.607821428
H -4.248927153 -0.943163499 2.322612396
H -4.098634777 -2.501972199 -0.623012694
H -5.878103319 0.304880382 -0.304061034

