18

C -4.610738406 0.292956852 0.377690717
C -2.096797854 0.823395379 -0.857449283
C -0.017605785 2.124063956 0.626968685
C 2.290973525 0.382018945 -0.653821655
C 4.344183182 -0.754889783 0.570925039
C -0.066291989 -1.179272514 -0.764650067
H -4.352632223 -0.486957913 2.272265293
H -5.693208093 -1.073133571 -0.726637093
H -5.743894120 2.008910641 0.542387208
H -2.305890512 1.660539913 -2.730036007
H -0.145453013 1.876053767 2.659189060
H 0.446578642 4.054793018 0.111462699
H 2.738752331 1.310753157 -2.435205416
H 4.088683253 -1.609199834 2.415246828
H 3.303514879 -3.577114020 -1.236915643
H 6.266774951 -0.349984384 0.010577969
H 1.854957148 -3.765888173 -1.869070435
H -0.269451796 -2.382878257 0.901741629

