12

N 3.661231984 0.951792688 0.180101255
C 5.199873980 2.497962313 -0.115214580
C 1.785017987 -0.925449736 0.529590210
O 0.232057348 -0.469113437 2.691117457
C -1.980128336 -0.658982365 1.150588059
C -2.024452845 1.410806823 -0.734017683
C -0.469487621 -0.917987396 -1.237728093
H 2.722710049 -2.756107274 0.679010193
H -3.576008700 -1.696681171 1.887437269
H -3.720863785 1.531862377 -1.871391510
H -1.116948629 3.194286101 -0.297975851
H -0.697382847 -2.132336610 -2.858500723

