13

O 3.072958881 0.262953009 2.027610558
C 2.428978636 0.516331475 -0.545273973
C 0.151128881 -1.091396640 -1.271492604
C -2.088738493 -0.845047388 0.467655910
C -2.367637843 2.399182776 1.302946359
N -4.132293502 2.040055557 -0.018271913
H 1.985486333 1.375112146 2.967236358
H 4.065228218 -0.091860645 -1.643496001
H 2.061132882 2.497342767 -1.016895340
H 0.677511923 -3.093551794 -1.208931671
H -0.408879475 -0.662963753 -3.212247362
H -1.732393253 -1.443442129 2.397989943
H -3.739033823 -1.846286121 -0.229675291

