19

C 3.315195220 -0.256004694 3.662498384
C 1.390121806 1.427459959 2.353433244
C 0.587285381 0.510129980 -1.579639491
O 1.788837351 -1.621670949 -1.786948683
C -2.226567765 0.175227293 -1.150158713
C -3.516339218 -0.617835015 -3.613565041
O -2.259985323 -1.635758480 0.688082295
H 2.384474187 -1.592091709 4.926968823
H 4.385679980 -1.354932989 2.279265254
H 4.673424458 0.838225364 4.764772666
H 0.176928556 2.473451829 3.666480113
H 2.361622164 2.899814293 1.282754276
H 1.477253090 2.080766097 -2.561183120
H 0.604469265 -2.787168513 -0.874388939
H -3.021517116 2.005469261 -0.547428960
H -2.711607757 -2.373788410 -4.334061885
H -5.508281139 -0.946977571 -3.212980973
H -3.370375298 0.839270212 -5.069411408
H -0.333455157 -0.116108987 1.767107182

