12

O -4.519907359 -1.391636346 -0.075230280
C -2.300005244 -0.499970434 0.239734530
C -0.933455768 1.894116053 -0.473775164
C 1.485488214 0.168431819 -0.567764321
C -0.143137816 -2.022376489 0.399353252
C 3.532500779 0.943606829 1.103676421
N 5.132094606 1.536026936 2.442082885
H -1.516477814 2.796617143 -2.227535948
H -0.854675146 3.266945069 1.057316696
H 2.226276086 -0.067813748 -2.476744431
H 0.344295741 -3.646207055 1.535915839
H -2.571943201 -2.870628192 -0.776643762

