14

C -3.341586738 -0.955504564 -0.634992783
C -0.618322394 -1.404601775 0.074875862
C 0.589847321 0.257639439 1.689641148
O 2.670100131 -0.608506533 2.979359575
C 2.405978590 2.523283056 -1.068324369
O 4.388066610 3.359368154 -0.862523443
H -3.854602991 -2.005811793 -2.332395527
H -3.675749597 1.046246793 -1.018846672
H -4.626747826 -1.527444405 0.876154094
H 0.582315571 -0.776346565 -2.363962722
H 0.056908894 -3.343184048 0.106105476
H -0.439292916 1.808232800 2.553329305
H 3.630985954 0.794383037 3.608826458
H 1.349742799 0.583936390 -3.090680298

