12

N 3.989994725 1.163437101 -2.008799166
C 3.567576572 0.848656803 0.180297428
C 1.658975976 -1.088567304 1.165540857
O -0.139317526 -0.771416553 3.044569148
C -2.138101522 -0.585308671 1.196783208
C -1.718826815 1.620920048 -0.447773685
C -0.274234976 -0.781625780 -0.988491339
H 2.735883500 -2.829175310 1.375082874
H -3.895490674 -1.496002480 1.697460324
H -3.224569907 1.964129744 -1.794513842
H -0.795001072 3.314214697 0.263429088
H 2.338340304 0.232287724 -2.990161192

