9

C 0.449951236 1.546316004 -0.691819172
O 1.804991958 2.778724234 -1.836680945
C -1.265096014 0.042290861 0.456658271
H -0.563017783 -1.592484167 1.468311567
C -3.897751996 0.078202423 -0.988051789
H -3.763926958 1.216977993 -2.710601894
C -3.650672762 1.592093655 1.288086989
H -4.328723068 0.819453542 3.067749398
H -3.454808110 3.647425589 1.327568035

