13

N 2.779428969 -1.463018634 -0.853581391
C 1.690600713 1.112278359 0.058844824
O 2.565245615 3.020783826 -0.758186505
C -0.521441786 0.320490445 1.440171410
C -1.904050060 -0.834422743 -0.938468021
C -3.184401416 0.985573546 0.870304164
H 3.708682251 -2.419889205 0.522009120
H 3.921212965 -1.229215935 -2.374219381
H -0.194191942 -1.128441300 2.855328912
H -1.405947015 0.337240108 -2.584869722
H 0.671698275 -2.292511932 -1.195819939
H -4.530390615 0.270541866 2.242754933
H -3.617438904 2.871227972 0.196397082

