11

C -2.604804953 0.286416435 0.269331251
C 0.091765308 0.518272130 -0.704299623
C 1.687801424 2.497557099 0.526381190
N 3.775019103 1.255058979 1.349537518
N 3.649030760 -1.209249278 0.827230653
N 1.609709852 -1.736894090 -0.322957823
H -3.565320352 2.079885939 -0.027700588
H -3.642143880 -1.197398087 -0.716609979
H -2.607678735 -0.118145375 2.289215871
H 0.114531047 0.971176875 -2.730641532
H 1.286049788 -3.545593199 -0.828233267

