11

C -2.820894077 -0.126243267 0.002449255
C -0.017766241 0.087589751 -0.008448947
C 1.605933065 2.087522775 -0.239050733
N 4.020245536 1.222662421 -0.128234264
N 3.987037322 -1.192145612 0.157726463
N 1.565567173 -1.898711942 0.232374727
H -3.665260635 1.738375540 -0.201013116
H -3.493218816 -1.301667808 -1.554370772
H -3.510459316 -0.944395620 1.766680520
H 1.185668406 4.065285231 -0.478053485
H 1.143147565 -3.738271451 0.449940332

