14

C 3.372924047 -0.240161570 -1.434323275
C 1.105412247 0.690342729 1.122747045
C -1.477262369 1.733873514 0.369468915
C -2.819293460 -0.590641591 -0.696410451
O -0.889672231 -2.006624431 -1.881750479
C 1.325519742 -1.763102493 -0.432492510
H 2.589710520 2.016818408 0.197913757
H 5.042399020 -0.642998003 -0.257605292
H 1.547642913 0.452439419 3.109544111
H -1.266883713 3.164358282 -1.097971451
H -2.450147669 2.573261663 1.979741622
H -4.248803564 -0.143179654 -2.109771031
H -3.713515245 -1.689507468 0.822856391
H 1.704928900 -3.455227894 0.678297237

