16

C 3.716685638 1.243242881 -0.206817334
C 2.459715145 -1.235504754 0.472197980
C 1.114743980 -2.516241729 -2.347431814
C -0.595315375 -1.874181823 -0.837269899
C -2.950190650 -1.258881668 0.502361032
C -3.340820265 1.561092301 0.980132136
H 4.816432657 1.045482229 -1.935175909
H 2.312457103 2.719608083 -0.521171310
H 4.969203824 1.855005752 1.318165155
H 3.792344376 -2.774010199 0.735948302
H 1.486913049 -1.069142809 2.296326023
H -3.034562122 -2.312530367 2.278855712
H -4.472369806 -1.996357549 -0.682144285
H -3.301690953 2.614004726 -0.790504525
H -5.158574904 1.886836677 1.895505984
H -1.871393287 2.324663808 2.210184407

