15

C -2.144942557 -2.030418653 0.813052038
C -0.417304006 -0.166089579 -0.485483019
C -1.282674378 1.227713773 -2.756323402
N -0.747797187 2.473829358 0.313212921
C 2.311358813 -1.078721567 -0.544008933
O 2.795973881 -3.203451670 -1.248625425
N 4.070568848 0.605724252 0.212368669
H -4.102409373 -1.377110569 0.743785734
H -2.019639845 -3.844265943 -0.149342561
H -1.598616253 -2.320390475 2.781474655
H -0.461852126 3.463316016 -1.575573405
H -3.350768993 1.097750334 -2.859016184
H -2.469545670 2.761754928 1.098620647
H 3.569555569 2.347907382 0.764046942
H 5.901188932 0.130742327 0.067139380

