12

O -2.830013007 2.013242819 1.482105831
C -2.419678028 -0.310839047 0.199089299
C 0.133822448 -0.538335692 -0.940193719
N 0.632683160 -0.215330059 -3.331306288
O 2.784550222 -0.079086323 -4.197372703
C 2.443308864 0.185307564 2.399680738
C 2.569106023 -1.218320039 0.511754445
H -2.727222734 3.354570252 0.263328044
H -2.704740152 -1.773125336 1.623243050
H -3.798003161 -0.588981958 -1.315324291
H 1.967651343 1.403278608 3.938735545
H 3.949474216 -2.257005830 -0.621617377

