15

O 1.497344790 -1.304219769 -2.472462406
C 0.949680938 -2.451806528 -0.152101637
C -1.784517796 -2.347368867 0.386054455
C -2.205226351 0.609572509 -0.038567723
C 0.230098798 2.260570666 -0.151857598
C 2.587747378 0.617614200 -0.854910927
C 2.731682979 -1.303246164 1.256944926
H -2.971869966 -3.422935819 -0.907980125
H -2.199150882 -2.904031746 2.324060097
H -3.209981014 0.826010249 -1.820002015
H -3.445133449 1.308345136 1.451996012
H -0.022202222 3.725965573 -1.583647468
H 0.572987978 3.223783044 1.641185093
H 4.186152000 1.645321212 -1.663890908
H 2.848193042 -1.093422351 3.283037145

