15

O 1.616797119 -1.644290272 -2.505105610
C 0.883658537 -2.400551051 -0.298311202
C -1.893735519 -2.298910034 0.064205467
C -2.140778961 0.682229889 0.257446196
C 0.145234826 2.233001414 -0.729262773
C 2.716869284 0.905420094 -0.270827574
C 2.591467625 -1.247819911 1.355732003
H -2.915234893 -3.057577701 -1.552915003
H -2.572417013 -3.172250855 1.799149133
H -3.847661441 1.300841090 -0.718977258
H -2.382696919 1.117444738 2.258633451
H -0.078482726 2.759961086 -2.710002151
H 0.228428998 4.002816214 0.341694306
H 4.372032359 2.126993069 -0.508138095
H 3.197465830 -1.522007096 3.278310619

