9

N 5.891150820 0.355281154 0.526899069
C 3.728270718 0.334888193 0.381844108
C 1.046740938 0.213605911 0.156752801
C -0.453797452 -1.716737779 -0.866902014
N -2.842656371 -1.017216405 -0.675428047
N -2.709404658 1.214934840 0.409690564
N -0.458196035 2.062501668 0.956548864
H 0.089255695 -3.496262843 -1.691342676
H -4.271829575 2.225766465 0.803243113

