14

C -0.891963392 3.004807742 0.602653541
N -0.829923759 0.432965943 -0.706779794
C -1.895976318 -1.781964436 0.660952726
C 1.757640240 -0.068070033 -1.642934752
C 3.491160148 -0.657069263 0.424759448
N 4.881504431 -1.202559515 1.992127001
H -2.887902575 3.239382148 1.119306345
H -1.884034156 0.708266460 -2.286863030
H 0.145620160 2.696889757 2.375040977
H -0.823891715 -2.032943819 2.397563149
H -1.810557901 -3.497594476 -0.488189428
H -3.845414443 -1.339414633 1.130280816
H 2.377102120 1.661611823 -2.572350834
H 1.756413279 -1.658699717 -2.959388817

