13

C 2.057188344 -1.371701984 1.736876818
C 0.791827447 1.721737050 -1.018000471
C 1.060109597 -1.075340110 -0.867266731
C -1.873032114 -0.844137296 -0.847594002
N -2.632945394 0.202280083 1.437144579
C -1.707151463 2.160762551 -0.188025633
H 3.957032100 -0.651309680 1.982751899
H 1.719590812 -3.161989756 2.695742259
H 1.856029851 3.039777879 -2.177950120
H 1.753216353 -2.110136504 -2.517459204
H -3.158447238 -1.527493802 -2.283168275
H -0.940745273 -0.205620268 2.614010149
H -2.844808580 3.812838815 -0.563363111

