9

N 3.293948046 -0.099118044 0.117611792
C 0.876785225 -0.955148142 0.397865395
N -0.823251117 0.651257996 -0.751185259
C -3.349944354 0.519600097 -0.213887574
N -3.850574492 -1.718496075 0.214564002
O 0.388468713 -2.912124083 1.514544756
H 3.631151381 1.651221485 -0.517877744
H 4.643137477 -1.016040409 1.079259099
H -4.621865113 2.123956790 -0.416840324

