15

C 2.191723181 -1.499636764 -0.336991118
C 2.415683354 2.622081717 0.744611827
C 0.352912325 0.761701773 0.911470751
O 0.197156109 0.271933800 3.287600475
N -1.909446116 1.108541067 -0.522249738
C -3.653573756 -1.000880705 -0.520955748
H 0.989883349 -3.148638709 -0.098478145
H 2.553327302 -1.119290358 -2.328852650
H 3.938780596 -1.800370104 0.699860751
H 2.805558458 3.672574064 2.458881511
H 3.900003850 2.525847169 -0.663848240
H -1.587226080 1.839300333 -2.254098845
H -3.088962310 -2.579390423 -1.747836133
H -3.830549423 -1.696470920 1.409087286
H -5.513096633 -0.350967816 -1.125703824

