11

O -4.055971168 0.854755592 -0.015491540
C -2.057058841 -0.070343354 -1.435837266
N 0.100488738 1.642752299 -1.463652788
C 1.928433290 0.298953029 -0.693727040
O 4.322192968 1.008678547 -0.444820119
C 1.090878250 -2.296840463 -0.030303818
N -1.264416940 -2.504495040 -0.390914378
H -4.211789952 2.622173766 -0.394739410
H 4.452612133 2.756300668 -0.943858295
H 2.282729557 -3.802353273 0.683686188
H -2.606530443 -0.430475964 -3.408386837

