11

O -4.355919685 1.118242014 -0.473094598
C -1.990843121 0.270252719 -0.881319566
N 0.047321955 1.793064196 -0.939154389
C 1.965273425 0.212363794 -0.571264680
O 4.370239312 0.969189280 -0.588651804
C 1.139223303 -2.272593444 -0.271784191
N -1.409858275 -2.276864716 -0.383798406
H -4.349303849 2.903885274 -0.808522781
H 4.383612714 2.776230835 -0.790658274
H 2.222476792 -3.993059029 -0.176969223
H -2.040656868 -1.421605097 -2.652827410

