10

C 0.749271042 1.336466717 -1.732873962
H -0.537585490 1.757106733 -3.251467645
C 1.992298361 3.054573169 0.123607534
H 1.954910016 2.568468071 2.124076825
H 1.893791549 5.066006386 -0.264092854
C 3.529784449 1.488402777 -1.643342102
H 4.855571965 2.048524082 -3.081217079
C 2.255274746 -0.988456984 -1.216560911
H 2.382455487 -2.367608779 -2.728910997
H 2.238548875 -1.798438879 0.676268257

