18

C -1.657847262 -2.131722373 -1.362956199
C -1.883192869 0.729834415 -1.088417355
C -3.265405774 1.491483843 1.318322625
N 0.397243410 2.316773747 -1.208291130
C 3.365865958 -0.607467637 1.488087910
C 2.763667954 1.627747572 -0.156552868
O 2.436241005 1.273719609 -2.757659117
H -1.153647677 -3.058513153 0.406989503
H -3.489876873 -2.878523278 -1.946725197
H -0.278441960 -2.636030806 -2.805858471
H -2.987824754 1.405320589 -2.700322407
H -3.476170387 3.538072807 1.431979013
H -5.140606897 0.635923643 1.360259957
H -2.238757463 0.847042297 2.990639255
H 2.599325465 -0.333728487 3.384806532
H 2.652676270 -2.367530355 0.716108880
H 5.415276189 -0.759429189 1.662546689
H 3.890232776 3.289933588 0.313391330

