18

C -1.642363658 -2.124858510 -1.374434641
C -1.791523407 0.675107341 -0.728424339
C -3.711441308 1.235404032 1.388364512
N 0.424305063 2.021680805 -0.052388443
C 4.039299928 -0.578557341 1.281505809
C 2.874541569 1.180111553 -0.742272271
O 2.712203720 0.373553747 -3.084212767
H -1.084925424 -3.232715591 0.273608494
H -3.507664770 -2.775521866 -1.962799698
H -0.286166178 -2.466110091 -2.883410488
H -2.501659109 1.698315255 -2.400372718
H -3.881731899 3.260835415 1.706416171
H -5.550702505 0.472849935 0.860237290
H -3.119007897 0.339314782 3.148758801
H 4.119389564 0.312791644 3.138240358
H 2.972335368 -2.333176627 1.389735413
H 5.951157221 -0.997670949 0.637181256
H 4.003215702 2.961480063 -0.661442316

