15

C 4.123942651 -0.645951003 0.541018744
C 1.381285314 -0.458163797 -0.049478699
C -0.042839505 -1.741098503 -1.675831672
C -2.672031128 -0.689008261 -1.412696285
C -3.029237384 0.224427616 1.278150941
C -0.409695364 1.380475680 1.199888803
C -2.484920123 2.065883370 -0.651494590
H 5.087424126 1.146016547 0.176824300
H 4.426974861 -1.097966311 2.535057316
H 5.032872817 -2.106133233 -0.592789114
H 0.516448714 -3.236375518 -2.948424285
H -4.273463848 -1.353164923 -2.497475104
H -4.480241271 0.030865180 2.696930443
H 0.177199071 2.713813124 2.637738835
H -3.366289389 3.802483230 -1.253888577

