10

O 4.028605836 -0.451255544 -0.051657742
C 1.525593210 -0.305889401 -0.107310970
N -0.045487068 -2.169248574 0.041346074
C -2.382591283 -0.950371954 -0.111413755
C -2.215038868 1.729395694 -0.463721368
N 0.386167121 1.986088721 -0.307191158
H 4.472285146 -2.211049013 0.088137053
H -4.106238733 -2.031287833 -0.302950952
H -2.930618549 0.533817054 1.699450603
H 1.309450815 3.644549293 -0.352841593

