15

C 3.488148794 -0.895104041 -2.050121788
C 1.455760573 0.359941483 -0.504863181
O 1.656921126 2.650740075 0.062460248
C -0.708614831 -0.971767660 0.197132223
O -0.936494316 -3.551051011 0.278935973
C -3.137219415 0.524903160 0.415666653
C -2.091114181 2.328009794 2.163504581
H 5.218077712 -1.059466278 -0.937481339
H 2.925245491 -2.757885695 -2.723900860
H 3.912155791 0.324421643 -3.656515455
H 0.401164158 -4.255360102 1.276915249
H -4.508758750 -0.744699019 1.281881260
H -3.865846918 1.299154075 -1.347638986
H -1.901034680 4.313973453 1.752114057
H -1.689099212 1.714578635 4.071165643

