27

C     3.17184   1.29778  -0.65899
C     2.41500   0.05129  -0.24094
O     2.99534  -1.01223  -0.06301
C     0.90148   0.12044  -0.12621
N     0.43820   1.27361   0.31742
N    -0.80080   1.39918   0.65514
C    -1.48069   2.60176   0.17507
C    -1.50484  -0.45670  -0.29854
C    -2.46577  -0.43572   0.78238
O    -3.59852   0.06357   0.69741
C    -0.17442  -1.10416  -0.33603
C     0.07137  -2.14193   0.80537
C     0.12130  -1.76491  -1.71943
H     2.83392   1.65985  -1.65496
H     3.08453   2.13117   0.03754
H     4.29119   1.06354  -0.77658
H    -1.18036   2.82433  -0.87233
H    -1.25713   3.54029   0.77965
H    -2.53763   2.42332   0.24780
H    -1.93613  -0.14065  -1.28266
H    -2.12290  -0.86768   1.73885
H     1.12139  -2.41521   0.75449
H    -0.14082  -1.68862   1.77347
H    -0.52428  -3.09744   0.74744
H    -0.11226  -1.07416  -2.53221
H    -0.41141  -2.73234  -1.94291
H     1.19700  -2.00232  -1.74304
27

C     3.17943   1.29983  -0.66275
C     2.42211   0.05651  -0.24073
O     2.99689  -1.00924  -0.06097
C     0.91439   0.13659  -0.12359
N     0.43000   1.26724   0.31950
N    -0.79619   1.41208   0.66672
C    -1.47810   2.60718   0.17516
C    -1.51334  -0.47178  -0.30467
C    -2.46628  -0.43654   0.78078
O    -3.59752   0.06590   0.69804
C    -0.19535  -1.12543  -0.34087
C     0.06904  -2.14428   0.80463
C     0.12095  -1.76808  -1.72060
H     2.83524   1.66043  -1.65570
H     3.08744   2.13182   0.03654
H     4.29324   1.06389  -0.77863
H    -1.17879   2.82393  -0.87238
H    -1.25802   3.54337   0.77776
H    -2.53673   2.42387   0.24701
H    -1.93817  -0.14420  -1.28420
H    -2.12234  -0.86672   1.73865
H     1.12148  -2.41191   0.75343
H    -0.14252  -1.68832   1.77252
H    -0.52097  -3.10050   0.74998
H    -0.11288  -1.07465  -2.53198
H    -0.40771  -2.73455  -1.94623
H     1.19740  -2.00011  -1.74100
27

C     3.18701   1.30187  -0.66651
C     2.42922   0.06173  -0.24052
O     2.99843  -1.00625  -0.05892
C     0.92730   0.15275  -0.12096
N     0.42181   1.26088   0.32159
N    -0.79158   1.42498   0.67830
C    -1.47551   2.61259   0.17525
C    -1.52184  -0.48686  -0.31079
C    -2.46678  -0.43736   0.77918
O    -3.59652   0.06822   0.69868
C    -0.21629  -1.14670  -0.34570
C     0.06672  -2.14662   0.80389
C     0.12060  -1.77126  -1.72177
H     2.83656   1.66101  -1.65644
H     3.09034   2.13246   0.03555
H     4.29529   1.06425  -0.78069
H    -1.17722   2.82354  -0.87242
H    -1.25892   3.54645   0.77587
H    -2.53582   2.42443   0.24621
H    -1.94021  -0.14775  -1.28575
H    -2.12177  -0.86577   1.73845
H     1.12158  -2.40861   0.75237
H    -0.14423  -1.68802   1.77157
H    -0.51765  -3.10357   0.75252
H    -0.11349  -1.07513  -2.53175
H    -0.40401  -2.73676  -1.94956
H     1.19780  -1.99791  -1.73896
27

C     3.19459   1.30392  -0.67027
C     2.43633   0.06695  -0.24031
O     2.99998  -1.00326  -0.05688
C     0.94022   0.16890  -0.11833
N     0.41361   1.25452   0.32367
N    -0.78697   1.43789   0.68988
C    -1.47291   2.61801   0.17534
C    -1.53033  -0.50194  -0.31692
C    -2.46728  -0.43818   0.77759
O    -3.59552   0.07055   0.69931
C    -0.23722  -1.16797  -0.35054
C     0.06439  -2.14896   0.80315
C     0.12025  -1.77444  -1.72294
H     2.83788   1.66159  -1.65717
H     3.09325   2.13311   0.03455
H     4.29733   1.06460  -0.78274
H    -1.17564   2.82315  -0.87246
H    -1.25981   3.54953   0.77398
H    -2.53492   2.42499   0.24542
H    -1.94225  -0.15130  -1.28730
H    -2.12121  -0.86482   1.73825
H     1.12168  -2.40531   0.75132
H    -0.14593  -1.68772   1.77063
H    -0.51433  -3.10664   0.75506
H    -0.11411  -1.07561  -2.53151
H    -0.40032  -2.73898  -1.95288
H     1.19820  -1.99571  -1.73692
27

C     3.20218   1.30597  -0.67403
C     2.44344   0.07218  -0.24010
O     3.00152  -1.00027  -0.05484
C     0.95313   0.18505  -0.11570
N     0.40541   1.24815   0.32575
N    -0.78236   1.45079   0.70145
C    -1.47032   2.62342   0.17544
C    -1.53883  -0.51702  -0.32304
C    -2.46779  -0.43900   0.77599
O    -3.59452   0.07287   0.69995
C    -0.25815  -1.18924  -0.35537
C     0.06206  -2.15131   0.80241
C     0.11991  -1.77762  -1.72411
H     2.83921   1.66216  -1.65791
H     3.09615   2.13376   0.03355
H     4.29938   1.06496  -0.78480
H    -1.17407   2.82276  -0.87250
H    -1.26070   3.55261   0.77209
H    -2.53402   2.42554   0.24463
H    -1.94429  -0.15485  -1.28885
H    -2.12065  -0.86387   1.73805
H     1.12178  -2.40201   0.75026
H    -0.14763  -1.68742   1.76968
H    -0.51101  -3.10971   0.75760
H    -0.11472  -1.07610  -2.53128
H    -0.39662  -2.74119  -1.95621
H     1.19859  -1.99351  -1.73488
27

C     3.20976   1.30802  -0.67779
C     2.45055   0.07740  -0.23989
O     3.00307  -0.99728  -0.05280
C     0.96604   0.20120  -0.11308
N     0.39721   1.24179   0.32783
N    -0.77775   1.46370   0.71303
C    -1.46773   2.62884   0.17553
C    -1.54733  -0.53210  -0.32916
C    -2.46829  -0.43983   0.77439
O    -3.59352   0.07520   0.70058
C    -0.27909  -1.21051  -0.36021
C     0.05973  -2.15365   0.80168
C     0.11956  -1.78080  -1.72529
H     2.84053   1.66274  -1.65865
H     3.09905   2.13441   0.03255
H     4.30143   1.06531  -0.78685
H    -1.17250   2.82237  -0.87254
H    -1.26159   3.55569   0.77020
H    -2.53312   2.42610   0.24384
H    -1.94634  -0.15840  -1.29040
H    -2.12008  -0.86292   1.73786
H     1.12187  -2.39870   0.74921
H    -0.14934  -1.68712   1.76873
H    -0.50769  -3.11278   0.76014
H    -0.11534  -1.07658  -2.53105
H    -0.39292  -2.74340  -1.95953
H     1.19899  -1.99131  -1.73284
27

C     3.21734   1.31007  -0.68155
C     2.45766   0.08262  -0.23968
O     3.00461  -0.99429  -0.05075
C     0.97895   0.21735  -0.11045
N     0.38902   1.23542   0.32992
N    -0.77314   1.47660   0.72461
C    -1.46514   2.63425   0.17562
C    -1.55582  -0.54718  -0.33529
C    -2.46880  -0.44065   0.77279
O    -3.59252   0.07752   0.70122
C    -0.30002  -1.23178  -0.36504
C     0.05740  -2.15599   0.80094
C     0.11921  -1.78398  -1.72646
H     2.84185   1.66332  -1.65938
H     3.10196   2.13506   0.03155
H     4.30348   1.06567  -0.78890
H    -1.17093   2.82198  -0.87258
H    -1.26248   3.55877   0.76831
H    -2.53222   2.42666   0.24305
H    -1.94838  -0.16195  -1.29194
H    -2.11952  -0.86197   1.73766
H     1.12197  -2.39540   0.74815
H    -0.15104  -1.68682   1.76778
H    -0.50437  -3.11585   0.76269
H    -0.11596  -1.07707  -2.53082
H    -0.38922  -2.74561  -1.96286
H     1.19939  -1.98911  -1.73080
27

C     3.22493   1.31212  -0.68531
C     2.46477   0.08784  -0.23947
O     3.00616  -0.99130  -0.04871
C     0.99186   0.23351  -0.10782
N     0.38082   1.22906   0.33200
N    -0.76853   1.48951   0.73619
C    -1.46255   2.63967   0.17571
C    -1.56432  -0.56226  -0.34141
C    -2.46930  -0.44147   0.77119
O    -3.59152   0.07985   0.70185
C    -0.32096  -1.25305  -0.36988
C     0.05508  -2.15834   0.80020
C     0.11886  -1.78716  -1.72763
H     2.84317   1.66390  -1.66012
H     3.10486   2.13571   0.03056
H     4.30552   1.06602  -0.79096
H    -1.16935   2.82158  -0.87263
H    -1.26337   3.56185   0.76641
H    -2.53131   2.42721   0.24226
H    -1.95042  -0.16550  -1.29349
H    -2.11896  -0.86101   1.73746
H     1.12207  -2.39210   0.74710
H    -0.15275  -1.68652   1.76684
H    -0.50105  -3.11891   0.76523
H    -0.11657  -1.07755  -2.53059
H    -0.38552  -2.74782  -1.96618
H     1.19979  -1.98690  -1.72876
27

C     3.23251   1.31417  -0.68907
C     2.47188   0.09307  -0.23926
O     3.00770  -0.98831  -0.04667
C     1.00477   0.24966  -0.10520
N     0.37262   1.22269   0.33408
N    -0.76392   1.50241   0.74777
C    -1.45996   2.64508   0.17581
C    -1.57281  -0.57734  -0.34754
C    -2.46980  -0.44229   0.76959
O    -3.59051   0.08218   0.70249
C    -0.34189  -1.27432  -0.37471
C     0.05275  -2.16068   0.79946
C     0.11851  -1.79034  -1.72880
H     2.84449   1.66447  -1.66085
H     3.10777   2.13635   0.02956
H     4.30757   1.06638  -0.79301
H    -1.16778   2.82119  -0.87267
H    -1.26426   3.56493   0.76452
H    -2.53041   2.42777   0.24147
H    -1.95246  -0.16905  -1.29504
H    -2.11839  -0.86006   1.73726
H     1.12217  -2.38880   0.74604
H    -0.15445  -1.68622   1.76589
H    -0.49773  -3.12198   0.76777
H    -0.11719  -1.07803  -2.53035
H    -0.38182  -2.75003  -1.96951
H     1.20019  -1.98470  -1.72672
27

C     3.24009   1.31622  -0.69283
C     2.47899   0.09829  -0.23905
O     3.00925  -0.98532  -0.04463
C     1.01768   0.26581  -0.10257
N     0.36443   1.21633   0.33616
N    -0.75930   1.51531   0.75935
C    -1.45736   2.65050   0.17590
C    -1.58131  -0.59242  -0.35366
C    -2.47031  -0.44311   0.76799
O    -3.58951   0.08450   0.70312
C    -0.36283  -1.29559  -0.37955
C     0.05042  -2.16302   0.79872
C     0.11816  -1.79352  -1.72998
H     2.84581   1.66505  -1.66159
H     3.11067   2.13700   0.02856
H     4.30962   1.06673  -0.79507
H    -1.16621   2.82080  -0.87271
H    -1.26515   3.56801   0.76263
H    -2.52951   2.42833   0.24067
H    -1.95450  -0.17260  -1.29659
H    -2.11783  -0.85911   1.73706
H     1.12226  -2.38550   0.74499
H    -0.15615  -1.68592   1.76494
H    -0.49442  -3.12505   0.77031
H    -0.11780  -1.07852  -2.53012
H    -0.37812  -2.75224  -1.97283
H     1.20058  -1.98250  -1.72469
27

C     3.24768   1.31827  -0.69659
C     2.48609   0.10351  -0.23884
O     3.01079  -0.98233  -0.04259
C     1.03059   0.28196  -0.09994
N     0.35623   1.20996   0.33825
N    -0.75469   1.52822   0.77093
C    -1.45477   2.65591   0.17599
C    -1.58981  -0.60750  -0.35978
C    -2.47081  -0.44394   0.76639
O    -3.58851   0.08683   0.70376
C    -0.38376  -1.31686  -0.38438
C     0.04809  -2.16536   0.79798
C     0.11781  -1.79669  -1.73115
H     2.84714   1.66563  -1.66233
H     3.11357   2.13765   0.02756
H     4.31167   1.06709  -0.79712
H    -1.16464   2.82041  -0.87275
H    -1.26604   3.57109   0.76074
H    -2.52861   2.42888   0.23988
H    -1.95654  -0.17615  -1.29813
H    -2.11727  -0.85816   1.73686
H     1.12236  -2.38220   0.74393
H    -0.15786  -1.68562   1.76399
H    -0.49110  -3.12812   0.77285
H    -0.11842  -1.07900  -2.52989
H    -0.37442  -2.75445  -1.97616
H     1.20098  -1.98030  -1.72265
27

C     3.25526   1.32031  -0.70035
C     2.49320   0.10873  -0.23863
O     3.01234  -0.97934  -0.04054
C     1.04350   0.29812  -0.09732
N     0.34803   1.20360   0.34033
N    -0.75008   1.54112   0.78251
C    -1.45218   2.66133   0.17608
C    -1.59830  -0.62257  -0.36591
C    -2.47131  -0.44476   0.76479
O    -3.58751   0.08915   0.70439
C    -0.40469  -1.33813  -0.38921
C     0.04576  -2.16771   0.79724
C     0.11746  -1.79987  -1.73232
H     2.84846   1.66621  -1.66306
H     3.11648   2.13830   0.02656
H     4.31372   1.06744  -0.79918
H    -1.16307   2.82002  -0.87279
H    -1.26693   3.57417   0.75885
H    -2.52770   2.42944   0.23909
H    -1.95858  -0.17970  -1.29968
H    -2.11670  -0.85721   1.73667
H     1.12246  -2.37890   0.74288
H    -0.15956  -1.68532   1.76305
H    -0.48778  -3.13119   0.77539
H    -0.11903  -1.07949  -2.52966
H    -0.37072  -2.75666  -1.97948
H     1.20138  -1.97810  -1.72061
27

C     3.26284   1.32236  -0.70411
C     2.50031   0.11396  -0.23842
O     3.01388  -0.97635  -0.03850
C     1.05641   0.31427  -0.09469
N     0.33983   1.19723   0.34241
N    -0.74547   1.55403   0.79409
C    -1.44959   2.66674   0.17618
C    -1.60680  -0.63765  -0.37203
C    -2.47182  -0.44558   0.76319
O    -3.58651   0.09148   0.70503
C    -0.42563  -1.35940  -0.39405
C     0.04344  -2.17005   0.79650
C     0.11711  -1.80305  -1.73349
H     2.84978   1.66679  -1.66380
H     3.11938   2.13895   0.02556
H     4.31576   1.06780  -0.80123
H    -1.16149   2.81963  -0.87283
H    -1.26782   3.57725   0.75696
H    -2.52680   2.43000   0.23830
H    -1.96062  -0.18325  -1.30123
H    -2.11614  -0.85625   1.73647
H     1.12256  -2.37560   0.74182
H    -0.16127  -1.68502   1.76210
H    -0.48446  -3.13425   0.77793
H    -0.11965  -1.07997  -2.52943
H    -0.36703  -2.75888  -1.98280
H     1.20178  -1.97590  -1.71857
27

C     3.27043   1.32441  -0.70787
C     2.50742   0.11918  -0.23821
O     3.01543  -0.97335  -0.03646
C     1.06932   0.33042  -0.09206
N     0.33164   1.19087   0.34449
N    -0.74086   1.56693   0.80567
C    -1.44700   2.67216   0.17627
C    -1.61530  -0.65273  -0.37816
C    -2.47232  -0.44640   0.76159
O    -3.58551   0.09380   0.70566
C    -0.44656  -1.38067  -0.39888
C     0.04111  -2.17239   0.79577
C     0.11676  -1.80623  -1.73467
H     2.85110   1.66736  -1.66454
H     3.12228   2.13960   0.02457
H     4.31781   1.06815  -0.80329
H    -1.15992   2.81923  -0.87287
H    -1.26871   3.58033   0.75506
H    -2.52590   2.43055   0.23751
H    -1.96266  -0.18680  -1.30278
H    -2.11557  -0.85530   1.73627
H     1.12265  -2.37229   0.74077
H    -0.16297  -1.68472   1.76115
H    -0.48114  -3.13732   0.78047
H    -0.12027  -1.08045  -2.52920
H    -0.36333  -2.76109  -1.98613
H     1.20218  -1.97370  -1.71653
27

C     3.27801   1.32646  -0.71163
C     2.51453   0.12440  -0.23800
O     3.01697  -0.97036  -0.03442
C     1.08223   0.34657  -0.08944
N     0.32344   1.18451   0.34658
N    -0.73625   1.57983   0.81725
C    -1.44441   2.67757   0.17636
C    -1.62379  -0.66781  -0.38428
C    -2.47283  -0.44722   0.75999
O    -3.58451   0.09613   0.70630
C    -0.46750  -1.40193  -0.40372
C     0.03878  -2.17474   0.79503
C     0.11641  -1.80941  -1.73584
H     2.85242   1.66794  -1.66527
H     3.12519   2.14024   0.02357
H     4.31986   1.06851  -0.80534
H    -1.15835   2.81884  -0.87292
H    -1.26960   3.58341   0.75317
H    -2.52500   2.43111   0.23672
H    -1.96470  -0.19035  -1.30433
H    -2.11501  -0.85435   1.73607
H     1.12275  -2.36899   0.73971
H    -0.16467  -1.68442   1.76021
H    -0.47782  -3.14039   0.78301
H    -0.12088  -1.08094  -2.52896
H    -0.35963  -2.76330  -1.98945
H     1.20257  -1.97149  -1.71449
27

C     3.28559   1.32851  -0.71539
C     2.52164   0.12962  -0.23779
O     3.01852  -0.96737  -0.03238
C     1.09514   0.36272  -0.08681
N     0.31524   1.17814   0.34866
N    -0.73164   1.59274   0.82883
C    -1.44181   2.68299   0.17645
C    -1.63229  -0.68289  -0.39040
C    -2.47333  -0.44805   0.75839
O    -3.58351   0.09845   0.70693
C    -0.48843  -1.42320  -0.40855
C     0.03645  -2.17708   0.79429
C     0.11606  -1.81259  -1.73701
H     2.85374   1.66852  -1.66601
H     3.12809   2.14089   0.02257
H     4.32191   1.06886  -0.80740
H    -1.15678   2.81845  -0.87296
H    -1.27049   3.58649   0.75128
H    -2.52409   2.43167   0.23593
H    -1.96674  -0.19390  -1.30587
H    -2.11445  -0.85340   1.73587
H     1.12285  -2.36569   0.73866
H    -0.16638  -1.68412   1.75926
H    -0.47450  -3.14346   0.78555
H    -0.12150  -1.08142  -2.52873
H    -0.35593  -2.76551  -1.99278
H     1.20297  -1.96929  -1.71245
27

C     3.29318   1.33056  -0.71915
C     2.52875   0.13485  -0.23758
O     3.02006  -0.96438  -0.03033
C     1.10805   0.37888  -0.08418
N     0.30705   1.17178   0.35074
N    -0.72703   1.60564   0.84041
C    -1.43922   2.68840   0.17655
C    -1.64079  -0.69797  -0.39653
C    -2.47383  -0.44887   0.75679
O    -3.58251   0.10078   0.70757
C    -0.50937  -1.44447  -0.41339
C     0.03412  -2.17942   0.79355
C     0.11571  -1.81577  -1.73818
H     2.85507   1.66910  -1.66675
H     3.13100   2.14154   0.02157
H     4.32395   1.06922  -0.80945
H    -1.15520   2.81806  -0.87300
H    -1.27138   3.58957   0.74939
H    -2.52319   2.43222   0.23513
H    -1.96878  -0.19745  -1.30742
H    -2.11388  -0.85245   1.73568
H     1.12295  -2.36239   0.73760
H    -0.16808  -1.68382   1.75831
H    -0.47119  -3.14653   0.78809
H    -0.12211  -1.08191  -2.52850
H    -0.35223  -2.76772  -1.99610
H     1.20337  -1.96709  -1.71041
27

C     3.30076   1.33261  -0.72291
C     2.53586   0.14007  -0.23737
O     3.02161  -0.96139  -0.02829
C     1.12096   0.39503  -0.08156
N     0.29885   1.16541   0.35282
N    -0.72242   1.61855   0.85198
C    -1.43663   2.69382   0.17664
C    -1.64928  -0.71305  -0.40265
C    -2.47434  -0.44969   0.75519
O    -3.58151   0.10311   0.70820
C    -0.53030  -1.46574  -0.41822
C     0.03180  -2.18176   0.79281
C     0.11536  -1.81895  -1.73936
H     2.85639   1.66967  -1.66748
H     3.13390   2.14219   0.02057
H     4.32600   1.06957  -0.81151
H    -1.15363   2.81767  -0.87304
H    -1.27227   3.59265   0.74750
H    -2.52229   2.43278   0.23434
H    -1.97082  -0.20100  -1.30897
H    -2.11332  -0.85150   1.73548
H     1.12304  -2.35909   0.73654
H    -0.16979  -1.68352   1.75736
H    -0.46787  -3.14960   0.79063
H    -0.12273  -1.08239  -2.52827
H    -0.34853  -2.76993  -1.99943
H     1.20377  -1.96489  -1.70838
27

C     3.30834   1.33466  -0.72667
C     2.54297   0.14529  -0.23716
O     3.02315  -0.95840  -0.02625
C     1.13387   0.41118  -0.07893
N     0.29065   1.15905   0.35491
N    -0.71781   1.63145   0.86356
C    -1.43404   2.69923   0.17673
C    -1.65778  -0.72813  -0.40878
C    -2.47484  -0.45051   0.75359
O    -3.58051   0.10543   0.70884
C    -0.55123  -1.48701  -0.42306
C     0.02947  -2.18411   0.79207
C     0.11501  -1.82212  -1.74053
H     2.85771   1.67025  -1.66822
H     3.13680   2.14284   0.01958
H     4.32805   1.06992  -0.81356
H    -1.15206   2.81728  -0.87308
H    -1.27316   3.59573   0.74561
H    -2.52139   2.43333   0.23355
H    -1.97286  -0.20455  -1.31052
H    -2.11276  -0.85054   1.73528
H     1.12314  -2.35579   0.73549
H    -0.17149  -1.68322   1.75642
H    -0.46455  -3.15266   0.79317
H    -0.12334  -1.08287  -2.52804
H    -0.34483  -2.77214  -2.00275
H     1.20416  -1.96269  -1.70634
27

C     3.31593   1.33671  -0.73043
C     2.55008   0.15052  -0.23695
O     3.02470  -0.95541  -0.02421
C     1.14678   0.42733  -0.07630
N     0.28245   1.15268   0.35699
N    -0.71319   1.64436   0.87514
C    -1.43145   2.70465   0.17682
C    -1.66627  -0.74321  -0.41490
C    -2.47534  -0.45133   0.75199
O    -3.57951   0.10776   0.70948
C    -0.57217  -1.50828  -0.42789
C     0.02714  -2.18645   0.79133
C     0.11466  -1.82530  -1.74170
H     2.85903   1.67083  -1.66895
H     3.13971   2.14349   0.01858
H     4.33010   1.07028  -0.81562
H    -1.15049   2.81689  -0.87312
H    -1.27405   3.59881   0.74371
H    -2.52049   2.43389   0.23276
H    -1.97490  -0.20810  -1.31206
H    -2.11219  -0.84959   1.73508
H     1.12324  -2.35249   0.73443
H    -0.17320  -1.68292   1.75547
H    -0.46123  -3.15573   0.79571
H    -0.12396  -1.08336  -2.52780
H    -0.34113  -2.77435  -2.00608
H     1.20456  -1.96049  -1.70430
27

C     3.32351   1.33875  -0.73419
C     2.55719   0.15574  -0.23674
O     3.02624  -0.95242  -0.02216
C     1.15969   0.44348  -0.07368
N     0.27426   1.14632   0.35907
N    -0.70858   1.65726   0.88672
C    -1.42886   2.71006   0.17692
C    -1.67477  -0.75829  -0.42102
C    -2.47585  -0.45216   0.75039
O    -3.57851   0.11008   0.71011
C    -0.59310  -1.52955  -0.43273
C     0.02481  -2.18879   0.79059
C     0.11431  -1.82848  -1.74287
H     2.86035   1.67141  -1.66969
H     3.14261   2.14413   0.01758
H     4.33214   1.07063  -0.81767
H    -1.14891   2.81649  -0.87317
H    -1.27494   3.60189   0.74182
H    -2.51958   2.43445   0.23197
H    -1.97694  -0.21165  -1.31361
H    -2.11163  -0.84864   1.73488
H     1.12334  -2.34918   0.73338
H    -0.17490  -1.68263   1.75452
H    -0.45791  -3.15880   0.79825
H    -0.12458  -1.08384  -2.52757
H    -0.33743  -2.77656  -2.00940
H     1.20496  -1.95828  -1.70226
27

C     3.31593   1.33671  -0.73043
C     2.55008   0.15052  -0.23695
O     3.02470  -0.95541  -0.02421
C     1.14678   0.42733  -0.07630
N     0.28245   1.15268   0.35699
N    -0.71319   1.64436   0.87514
C    -1.43145   2.70465   0.17682
C    -1.66627  -0.74321  -0.41490
C    -2.47534  -0.45133   0.75199
O    -3.57951   0.10776   0.70948
C    -0.57217  -1.50828  -0.42789
C     0.02714  -2.18645   0.79133
C     0.11466  -1.82530  -1.74170
H     2.85903   1.67083  -1.66895
H     3.13971   2.14349   0.01858
H     4.33010   1.07028  -0.81562
H    -1.15049   2.81689  -0.87312
H    -1.27405   3.59881   0.74371
H    -2.52049   2.43389   0.23276
H    -1.97490  -0.20810  -1.31206
H    -2.11219  -0.84959   1.73508
H     1.12324  -2.35249   0.73443
H    -0.17320  -1.68292   1.75547
H    -0.46123  -3.15573   0.79571
H    -0.12396  -1.08336  -2.52780
H    -0.34113  -2.77435  -2.00608
H     1.20456  -1.96049  -1.70430
27

C     3.30834   1.33466  -0.72667
C     2.54297   0.14529  -0.23716
O     3.02315  -0.95840  -0.02625
C     1.13387   0.41118  -0.07893
N     0.29065   1.15905   0.35491
N    -0.71781   1.63145   0.86356
C    -1.43404   2.69923   0.17673
C    -1.65778  -0.72813  -0.40878
C    -2.47484  -0.45051   0.75359
O    -3.58051   0.10543   0.70884
C    -0.55123  -1.48701  -0.42306
C     0.02947  -2.18411   0.79207
C     0.11501  -1.82212  -1.74053
H     2.85771   1.67025  -1.66822
H     3.13680   2.14284   0.01958
H     4.32805   1.06992  -0.81356
H    -1.15206   2.81728  -0.87308
H    -1.27316   3.59573   0.74561
H    -2.52139   2.43333   0.23355
H    -1.97286  -0.20455  -1.31052
H    -2.11276  -0.85054   1.73528
H     1.12314  -2.35579   0.73549
H    -0.17149  -1.68322   1.75642
H    -0.46455  -3.15266   0.79317
H    -0.12334  -1.08287  -2.52804
H    -0.34483  -2.77214  -2.00275
H     1.20416  -1.96269  -1.70634
27

C     3.30076   1.33261  -0.72291
C     2.53586   0.14007  -0.23737
O     3.02161  -0.96139  -0.02829
C     1.12096   0.39503  -0.08156
N     0.29885   1.16541   0.35282
N    -0.72242   1.61855   0.85198
C    -1.43663   2.69382   0.17664
C    -1.64928  -0.71305  -0.40265
C    -2.47434  -0.44969   0.75519
O    -3.58151   0.10311   0.70820
C    -0.53030  -1.46574  -0.41822
C     0.03180  -2.18176   0.79281
C     0.11536  -1.81895  -1.73936
H     2.85639   1.66967  -1.66748
H     3.13390   2.14219   0.02057
H     4.32600   1.06957  -0.81151
H    -1.15363   2.81767  -0.87304
H    -1.27227   3.59265   0.74750
H    -2.52229   2.43278   0.23434
H    -1.97082  -0.20100  -1.30897
H    -2.11332  -0.85150   1.73548
H     1.12304  -2.35909   0.73654
H    -0.16979  -1.68352   1.75736
H    -0.46787  -3.14960   0.79063
H    -0.12273  -1.08239  -2.52827
H    -0.34853  -2.76993  -1.99943
H     1.20377  -1.96489  -1.70838
27

C     3.29318   1.33056  -0.71915
C     2.52875   0.13485  -0.23758
O     3.02006  -0.96438  -0.03033
C     1.10805   0.37888  -0.08418
N     0.30705   1.17178   0.35074
N    -0.72703   1.60564   0.84041
C    -1.43922   2.68840   0.17655
C    -1.64079  -0.69797  -0.39653
C    -2.47383  -0.44887   0.75679
O    -3.58251   0.10078   0.70757
C    -0.50937  -1.44447  -0.41339
C     0.03412  -2.17942   0.79355
C     0.11571  -1.81577  -1.73818
H     2.85507   1.66910  -1.66675
H     3.13100   2.14154   0.02157
H     4.32395   1.06922  -0.80945
H    -1.15520   2.81806  -0.87300
H    -1.27138   3.58957   0.74939
H    -2.52319   2.43222   0.23513
H    -1.96878  -0.19745  -1.30742
H    -2.11388  -0.85245   1.73568
H     1.12295  -2.36239   0.73760
H    -0.16808  -1.68382   1.75831
H    -0.47119  -3.14653   0.78809
H    -0.12211  -1.08191  -2.52850
H    -0.35223  -2.76772  -1.99610
H     1.20337  -1.96709  -1.71041
27

C     3.28559   1.32851  -0.71539
C     2.52164   0.12962  -0.23779
O     3.01852  -0.96737  -0.03238
C     1.09514   0.36272  -0.08681
N     0.31524   1.17814   0.34866
N    -0.73164   1.59274   0.82883
C    -1.44181   2.68299   0.17645
C    -1.63229  -0.68289  -0.39040
C    -2.47333  -0.44805   0.75839
O    -3.58351   0.09845   0.70693
C    -0.48843  -1.42320  -0.40855
C     0.03645  -2.17708   0.79429
C     0.11606  -1.81259  -1.73701
H     2.85374   1.66852  -1.66601
H     3.12809   2.14089   0.02257
H     4.32191   1.06886  -0.80740
H    -1.15678   2.81845  -0.87296
H    -1.27049   3.58649   0.75128
H    -2.52409   2.43167   0.23593
H    -1.96674  -0.19390  -1.30587
H    -2.11445  -0.85340   1.73587
H     1.12285  -2.36569   0.73866
H    -0.16638  -1.68412   1.75926
H    -0.47450  -3.14346   0.78555
H    -0.12150  -1.08142  -2.52873
H    -0.35593  -2.76551  -1.99278
H     1.20297  -1.96929  -1.71245
27

C     3.27801   1.32646  -0.71163
C     2.51453   0.12440  -0.23800
O     3.01697  -0.97036  -0.03442
C     1.08223   0.34657  -0.08944
N     0.32344   1.18451   0.34658
N    -0.73625   1.57983   0.81725
C    -1.44441   2.67757   0.17636
C    -1.62379  -0.66781  -0.38428
C    -2.47283  -0.44722   0.75999
O    -3.58451   0.09613   0.70630
C    -0.46750  -1.40193  -0.40372
C     0.03878  -2.17474   0.79503
C     0.11641  -1.80941  -1.73584
H     2.85242   1.66794  -1.66527
H     3.12519   2.14024   0.02357
H     4.31986   1.06851  -0.80534
H    -1.15835   2.81884  -0.87292
H    -1.26960   3.58341   0.75317
H    -2.52500   2.43111   0.23672
H    -1.96470  -0.19035  -1.30433
H    -2.11501  -0.85435   1.73607
H     1.12275  -2.36899   0.73971
H    -0.16467  -1.68442   1.76021
H    -0.47782  -3.14039   0.78301
H    -0.12088  -1.08094  -2.52896
H    -0.35963  -2.76330  -1.98945
H     1.20257  -1.97149  -1.71449
27

C     3.27043   1.32441  -0.70787
C     2.50742   0.11918  -0.23821
O     3.01543  -0.97335  -0.03646
C     1.06932   0.33042  -0.09206
N     0.33164   1.19087   0.34449
N    -0.74086   1.56693   0.80567
C    -1.44700   2.67216   0.17627
C    -1.61530  -0.65273  -0.37816
C    -2.47232  -0.44640   0.76159
O    -3.58551   0.09380   0.70566
C    -0.44656  -1.38067  -0.39888
C     0.04111  -2.17239   0.79577
C     0.11676  -1.80623  -1.73467
H     2.85110   1.66736  -1.66454
H     3.12228   2.13960   0.02457
H     4.31781   1.06815  -0.80329
H    -1.15992   2.81923  -0.87287
H    -1.26871   3.58033   0.75506
H    -2.52590   2.43055   0.23751
H    -1.96266  -0.18680  -1.30278
H    -2.11557  -0.85530   1.73627
H     1.12265  -2.37229   0.74077
H    -0.16297  -1.68472   1.76115
H    -0.48114  -3.13732   0.78047
H    -0.12027  -1.08045  -2.52920
H    -0.36333  -2.76109  -1.98613
H     1.20218  -1.97370  -1.71653
27

C     3.26284   1.32236  -0.70411
C     2.50031   0.11396  -0.23842
O     3.01388  -0.97635  -0.03850
C     1.05641   0.31427  -0.09469
N     0.33983   1.19723   0.34241
N    -0.74547   1.55403   0.79409
C    -1.44959   2.66674   0.17618
C    -1.60680  -0.63765  -0.37203
C    -2.47182  -0.44558   0.76319
O    -3.58651   0.09148   0.70503
C    -0.42563  -1.35940  -0.39405
C     0.04344  -2.17005   0.79650
C     0.11711  -1.80305  -1.73349
H     2.84978   1.66679  -1.66380
H     3.11938   2.13895   0.02556
H     4.31576   1.06780  -0.80123
H    -1.16149   2.81963  -0.87283
H    -1.26782   3.57725   0.75696
H    -2.52680   2.43000   0.23830
H    -1.96062  -0.18325  -1.30123
H    -2.11614  -0.85625   1.73647
H     1.12256  -2.37560   0.74182
H    -0.16127  -1.68502   1.76210
H    -0.48446  -3.13425   0.77793
H    -0.11965  -1.07997  -2.52943
H    -0.36703  -2.75888  -1.98280
H     1.20178  -1.97590  -1.71857
27

C     3.25526   1.32031  -0.70035
C     2.49320   0.10873  -0.23863
O     3.01234  -0.97934  -0.04054
C     1.04350   0.29812  -0.09732
N     0.34803   1.20360   0.34033
N    -0.75008   1.54112   0.78251
C    -1.45218   2.66133   0.17608
C    -1.59830  -0.62257  -0.36591
C    -2.47131  -0.44476   0.76479
O    -3.58751   0.08915   0.70439
C    -0.40469  -1.33813  -0.38921
C     0.04576  -2.16771   0.79724
C     0.11746  -1.79987  -1.73232
H     2.84846   1.66621  -1.66306
H     3.11648   2.13830   0.02656
H     4.31372   1.06744  -0.79918
H    -1.16307   2.82002  -0.87279
H    -1.26693   3.57417   0.75885
H    -2.52770   2.42944   0.23909
H    -1.95858  -0.17970  -1.29968
H    -2.11670  -0.85721   1.73667
H     1.12246  -2.37890   0.74288
H    -0.15956  -1.68532   1.76305
H    -0.48778  -3.13119   0.77539
H    -0.11903  -1.07949  -2.52966
H    -0.37072  -2.75666  -1.97948
H     1.20138  -1.97810  -1.72061
27

C     3.24768   1.31827  -0.69659
C     2.48609   0.10351  -0.23884
O     3.01079  -0.98233  -0.04259
C     1.03059   0.28196  -0.09994
N     0.35623   1.20996   0.33825
N    -0.75469   1.52822   0.77093
C    -1.45477   2.65591   0.17599
C    -1.58981  -0.60750  -0.35978
C    -2.47081  -0.44394   0.76639
O    -3.58851   0.08683   0.70376
C    -0.38376  -1.31686  -0.38438
C     0.04809  -2.16536   0.79798
C     0.11781  -1.79669  -1.73115
H     2.84714   1.66563  -1.66233
H     3.11357   2.13765   0.02756
H     4.31167   1.06709  -0.79712
H    -1.16464   2.82041  -0.87275
H    -1.26604   3.57109   0.76074
H    -2.52861   2.42888   0.23988
H    -1.95654  -0.17615  -1.29813
H    -2.11727  -0.85816   1.73686
H     1.12236  -2.38220   0.74393
H    -0.15786  -1.68562   1.76399
H    -0.49110  -3.12812   0.77285
H    -0.11842  -1.07900  -2.52989
H    -0.37442  -2.75445  -1.97616
H     1.20098  -1.98030  -1.72265
27

C     3.24009   1.31622  -0.69283
C     2.47899   0.09829  -0.23905
O     3.00925  -0.98532  -0.04463
C     1.01768   0.26581  -0.10257
N     0.36443   1.21633   0.33616
N    -0.75930   1.51531   0.75935
C    -1.45736   2.65050   0.17590
C    -1.58131  -0.59242  -0.35366
C    -2.47031  -0.44311   0.76799
O    -3.58951   0.08450   0.70312
C    -0.36283  -1.29559  -0.37955
C     0.05042  -2.16302   0.79872
C     0.11816  -1.79352  -1.72998
H     2.84581   1.66505  -1.66159
H     3.11067   2.13700   0.02856
H     4.30962   1.06673  -0.79507
H    -1.16621   2.82080  -0.87271
H    -1.26515   3.56801   0.76263
H    -2.52951   2.42833   0.24067
H    -1.95450  -0.17260  -1.29659
H    -2.11783  -0.85911   1.73706
H     1.12226  -2.38550   0.74499
H    -0.15615  -1.68592   1.76494
H    -0.49442  -3.12505   0.77031
H    -0.11780  -1.07852  -2.53012
H    -0.37812  -2.75224  -1.97283
H     1.20058  -1.98250  -1.72469
27

C     3.23251   1.31417  -0.68907
C     2.47188   0.09307  -0.23926
O     3.00770  -0.98831  -0.04667
C     1.00477   0.24966  -0.10520
N     0.37262   1.22269   0.33408
N    -0.76392   1.50241   0.74777
C    -1.45996   2.64508   0.17581
C    -1.57281  -0.57734  -0.34754
C    -2.46980  -0.44229   0.76959
O    -3.59051   0.08218   0.70249
C    -0.34189  -1.27432  -0.37471
C     0.05275  -2.16068   0.79946
C     0.11851  -1.79034  -1.72880
H     2.84449   1.66447  -1.66085
H     3.10777   2.13635   0.02956
H     4.30757   1.06638  -0.79301
H    -1.16778   2.82119  -0.87267
H    -1.26426   3.56493   0.76452
H    -2.53041   2.42777   0.24147
H    -1.95246  -0.16905  -1.29504
H    -2.11839  -0.86006   1.73726
H     1.12217  -2.38880   0.74604
H    -0.15445  -1.68622   1.76589
H    -0.49773  -3.12198   0.76777
H    -0.11719  -1.07803  -2.53035
H    -0.38182  -2.75003  -1.96951
H     1.20019  -1.98470  -1.72672
27

C     3.22493   1.31212  -0.68531
C     2.46477   0.08784  -0.23947
O     3.00616  -0.99130  -0.04871
C     0.99186   0.23351  -0.10782
N     0.38082   1.22906   0.33200
N    -0.76853   1.48951   0.73619
C    -1.46255   2.63967   0.17571
C    -1.56432  -0.56226  -0.34141
C    -2.46930  -0.44147   0.77119
O    -3.59152   0.07985   0.70185
C    -0.32096  -1.25305  -0.36988
C     0.05508  -2.15834   0.80020
C     0.11886  -1.78716  -1.72763
H     2.84317   1.66390  -1.66012
H     3.10486   2.13571   0.03056
H     4.30552   1.06602  -0.79096
H    -1.16935   2.82158  -0.87263
H    -1.26337   3.56185   0.76641
H    -2.53131   2.42721   0.24226
H    -1.95042  -0.16550  -1.29349
H    -2.11896  -0.86101   1.73746
H     1.12207  -2.39210   0.74710
H    -0.15275  -1.68652   1.76684
H    -0.50105  -3.11891   0.76523
H    -0.11657  -1.07755  -2.53059
H    -0.38552  -2.74782  -1.96618
H     1.19979  -1.98690  -1.72876
27

C     3.21734   1.31007  -0.68155
C     2.45766   0.08262  -0.23968
O     3.00461  -0.99429  -0.05075
C     0.97895   0.21735  -0.11045
N     0.38902   1.23542   0.32992
N    -0.77314   1.47660   0.72461
C    -1.46514   2.63425   0.17562
C    -1.55582  -0.54718  -0.33529
C    -2.46880  -0.44065   0.77279
O    -3.59252   0.07752   0.70122
C    -0.30002  -1.23178  -0.36504
C     0.05740  -2.15599   0.80094
C     0.11921  -1.78398  -1.72646
H     2.84185   1.66332  -1.65938
H     3.10196   2.13506   0.03155
H     4.30348   1.06567  -0.78890
H    -1.17093   2.82198  -0.87258
H    -1.26248   3.55877   0.76831
H    -2.53222   2.42666   0.24305
H    -1.94838  -0.16195  -1.29194
H    -2.11952  -0.86197   1.73766
H     1.12197  -2.39540   0.74815
H    -0.15104  -1.68682   1.76778
H    -0.50437  -3.11585   0.76269
H    -0.11596  -1.07707  -2.53082
H    -0.38922  -2.74561  -1.96286
H     1.19939  -1.98911  -1.73080
27

C     3.20976   1.30802  -0.67779
C     2.45055   0.07740  -0.23989
O     3.00307  -0.99728  -0.05280
C     0.96604   0.20120  -0.11308
N     0.39721   1.24179   0.32783
N    -0.77775   1.46370   0.71303
C    -1.46773   2.62884   0.17553
C    -1.54733  -0.53210  -0.32916
C    -2.46829  -0.43983   0.77439
O    -3.59352   0.07520   0.70058
C    -0.27909  -1.21051  -0.36021
C     0.05973  -2.15365   0.80168
C     0.11956  -1.78080  -1.72529
H     2.84053   1.66274  -1.65865
H     3.09905   2.13441   0.03255
H     4.30143   1.06531  -0.78685
H    -1.17250   2.82237  -0.87254
H    -1.26159   3.55569   0.77020
H    -2.53312   2.42610   0.24384
H    -1.94634  -0.15840  -1.29040
H    -2.12008  -0.86292   1.73786
H     1.12187  -2.39870   0.74921
H    -0.14934  -1.68712   1.76873
H    -0.50769  -3.11278   0.76014
H    -0.11534  -1.07658  -2.53105
H    -0.39292  -2.74340  -1.95953
H     1.19899  -1.99131  -1.73284
27

C     3.20218   1.30597  -0.67403
C     2.44344   0.07218  -0.24010
O     3.00152  -1.00027  -0.05484
C     0.95313   0.18505  -0.11570
N     0.40541   1.24815   0.32575
N    -0.78236   1.45079   0.70145
C    -1.47032   2.62342   0.17544
C    -1.53883  -0.51702  -0.32304
C    -2.46779  -0.43900   0.77599
O    -3.59452   0.07287   0.69995
C    -0.25815  -1.18924  -0.35537
C     0.06206  -2.15131   0.80241
C     0.11991  -1.77762  -1.72411
H     2.83921   1.66216  -1.65791
H     3.09615   2.13376   0.03355
H     4.29938   1.06496  -0.78480
H    -1.17407   2.82276  -0.87250
H    -1.26070   3.55261   0.77209
H    -2.53402   2.42554   0.24463
H    -1.94429  -0.15485  -1.28885
H    -2.12065  -0.86387   1.73805
H     1.12178  -2.40201   0.75026
H    -0.14763  -1.68742   1.76968
H    -0.51101  -3.10971   0.75760
H    -0.11472  -1.07610  -2.53128
H    -0.39662  -2.74119  -1.95621
H     1.19859  -1.99351  -1.73488
27

C     3.19459   1.30392  -0.67027
C     2.43633   0.06695  -0.24031
O     2.99998  -1.00326  -0.05688
C     0.94022   0.16890  -0.11833
N     0.41361   1.25452   0.32367
N    -0.78697   1.43789   0.68988
C    -1.47291   2.61801   0.17534
C    -1.53033  -0.50194  -0.31692
C    -2.46728  -0.43818   0.77759
O    -3.59552   0.07055   0.69931
C    -0.23722  -1.16797  -0.35054
C     0.06439  -2.14896   0.80315
C     0.12025  -1.77444  -1.72294
H     2.83788   1.66159  -1.65717
H     3.09325   2.13311   0.03455
H     4.29733   1.06460  -0.78274
H    -1.17564   2.82315  -0.87246
H    -1.25981   3.54953   0.77398
H    -2.53492   2.42499   0.24542
H    -1.94225  -0.15130  -1.28730
H    -2.12121  -0.86482   1.73825
H     1.12168  -2.40531   0.75132
H    -0.14593  -1.68772   1.77063
H    -0.51433  -3.10664   0.75506
H    -0.11411  -1.07561  -2.53151
H    -0.40032  -2.73898  -1.95288
H     1.19820  -1.99571  -1.73692
27

C     3.18701   1.30187  -0.66651
C     2.42922   0.06173  -0.24052
O     2.99843  -1.00625  -0.05892
C     0.92730   0.15275  -0.12096
N     0.42181   1.26088   0.32159
N    -0.79158   1.42498   0.67830
C    -1.47551   2.61259   0.17525
C    -1.52184  -0.48686  -0.31079
C    -2.46678  -0.43736   0.77918
O    -3.59652   0.06822   0.69868
C    -0.21629  -1.14670  -0.34570
C     0.06672  -2.14662   0.80389
C     0.12060  -1.77126  -1.72177
H     2.83656   1.66101  -1.65644
H     3.09034   2.13246   0.03555
H     4.29529   1.06425  -0.78069
H    -1.17722   2.82354  -0.87242
H    -1.25892   3.54645   0.77587
H    -2.53582   2.42443   0.24621
H    -1.94021  -0.14775  -1.28575
H    -2.12177  -0.86577   1.73845
H     1.12158  -2.40861   0.75237
H    -0.14423  -1.68802   1.77157
H    -0.51765  -3.10357   0.75252
H    -0.11349  -1.07513  -2.53175
H    -0.40401  -2.73676  -1.94956
H     1.19780  -1.99791  -1.73896
27

C     3.17943   1.29983  -0.66275
C     2.42211   0.05651  -0.24073
O     2.99689  -1.00924  -0.06097
C     0.91439   0.13659  -0.12359
N     0.43000   1.26724   0.31950
N    -0.79619   1.41208   0.66672
C    -1.47810   2.60718   0.17516
C    -1.51334  -0.47178  -0.30467
C    -2.46628  -0.43654   0.78078
O    -3.59752   0.06590   0.69804
C    -0.19535  -1.12543  -0.34087
C     0.06904  -2.14428   0.80463
C     0.12095  -1.76808  -1.72060
H     2.83524   1.66043  -1.65570
H     3.08744   2.13182   0.03654
H     4.29324   1.06389  -0.77863
H    -1.17879   2.82393  -0.87238
H    -1.25802   3.54337   0.77776
H    -2.53673   2.42387   0.24701
H    -1.93817  -0.14420  -1.28420
H    -2.12234  -0.86672   1.73865
H     1.12148  -2.41191   0.75343
H    -0.14252  -1.68832   1.77252
H    -0.52097  -3.10050   0.74998
H    -0.11288  -1.07465  -2.53198
H    -0.40771  -2.73455  -1.94623
H     1.19740  -2.00011  -1.74100
