15

O 4.563142006 1.463118184 1.608180119
C 3.063929845 0.297987209 -0.258690373
C 0.677670245 -0.781884615 0.862670029
O -0.917562850 1.155659139 1.938939260
C -3.113012949 0.240912850 0.715781731
C -2.453097929 -0.300506176 -2.955037155
C -1.450505151 -1.717578991 -0.898245049
H 3.589222364 2.805714984 2.345388396
H 2.598253764 1.624116557 -1.779919714
H 4.185653396 -1.235935631 -1.066069623
H 1.149199791 -2.168292542 2.323421785
H -4.413822594 -0.798857266 1.929523984
H -1.396339080 1.486769373 -3.139888823
H -4.185770049 1.708912253 -0.287324240
H -2.013339630 -3.685320191 -0.727751596

