15

O 4.586321671 1.487751369 1.513683363
C 3.066611575 0.271651267 -0.305369424
C 0.714210159 -0.816553701 0.872031770
O -0.902494174 1.113915732 1.983661084
C -3.030943391 0.116060554 0.741507366
C -2.624745513 -0.047784333 -2.644903713
C -1.485186217 -1.761427535 -0.794426558
H 3.608864310 2.829071867 2.248133358
H 2.568465784 1.562150794 -1.846486375
H 4.190778125 -1.266448604 -1.100761499
H 1.216277018 -2.173538611 2.346096477
H -4.615746917 -0.525155759 1.880508853
H -1.420213294 1.622079981 -2.913031189
H -4.057958933 1.416353170 -0.751071799
H -1.960019401 -3.752316065 -0.846110359

