11

C 5.443030105 0.284175068 1.041592058
C 5.136533252 -2.126803246 0.860257132
C 2.737282011 -1.328886270 0.059972821
C 0.965961703 0.138058969 -0.499361829
C -1.461515942 1.060344056 -1.350652778
C -3.759521043 -0.409070091 -0.840484380
O -3.228232839 1.816398534 0.520681115
H 3.218795566 1.633944834 0.331485949
H -1.422841544 2.267208480 -3.009221027
H -3.606906591 -2.157149281 0.221691179
H -5.313275179 -0.289972276 -2.175726498

