14

C -1.937566847 -2.076593752 -0.590490016
C 0.226379571 0.106460027 -0.872344766
C -1.835950925 2.166745197 0.010557786
C -2.063935233 -0.192007872 1.343230406
O 2.844269762 -0.072476704 2.924722830
C 2.849419928 -0.099096860 0.289402240
H -3.070724545 -2.007007762 -2.319602441
H -1.358797554 -3.971873952 -0.055770693
H 0.296342013 0.351868686 -2.907968122
H -2.986242165 2.637048670 -1.641878528
H -1.194106562 3.802180855 1.070072668
H 1.067518061 -0.300643521 3.405341146
H 3.722047887 -1.839075946 -0.435032963
H 3.983151875 1.488711142 -0.406819768

