14

C 3.432802193 -0.272640501 0.382876541
C 0.854909642 -0.912143456 1.523168238
H 1.143856023 -2.176363430 3.146548558
C -0.934777122 -2.157165759 -0.293930401
H -0.490404679 -3.868544502 -1.320173291
C -3.084046547 -0.834295980 -0.423664786
H -4.712844693 -1.285786436 -1.573958766
C -2.895721997 1.362774011 1.256359583
H -4.368465010 2.755690003 1.522625679
C -0.633751951 1.346631025 2.383720659
H 0.071440529 2.721361201 3.722379459
H 4.638890771 0.670233246 1.764661669
H 3.207200679 0.980129226 -1.240158507
H 4.400413230 -1.980400248 -0.250734739

