16

C -1.985496840 0.657791554 0.474974932
C -0.255091295 2.657129088 -0.683315594
C 2.539574517 2.268771718 -0.392830862
C 3.686661367 0.424328477 0.849305886
C -1.823231897 -4.078831714 0.251610382
C -1.931752934 -1.841924784 -0.861657363
H -1.552088852 0.395789436 2.479141435
H -3.920797357 1.387958939 0.392123500
H -0.682228056 2.838774326 -2.703443403
H 3.699410121 3.699924183 -1.305753169
H -0.725790968 4.502743374 0.128164741
H 2.655053848 -1.080402875 1.776792331
H 5.729213348 0.345303853 0.959553340
H -1.708620593 -4.255975170 2.292618531
H -1.840634252 -5.817072460 -0.828461092
H -2.034982153 -1.758272637 -2.914898730

