15

C -2.669360265 1.440595087 -0.027702705
C -2.666849178 -0.997787809 -0.853083675
C 1.521658649 -2.505496463 -0.178375369
N 2.363193755 -0.791024011 1.362606543
C 2.467625784 1.837513294 0.369737011
O 2.802536427 2.050786103 -1.963438388
H -2.393319051 2.969441536 -1.362503742
H -3.507356839 1.926695290 1.779487912
H 0.205633062 2.129564609 0.969334638
H -2.405883632 -1.411631670 -2.837093131
H -3.458854637 -2.488474565 0.306014217
H 1.918565915 -2.173299107 -2.155643320
H 0.995669804 -4.345548679 0.533807209
H 2.089741352 -1.013160750 3.240809571
H 3.546081315 2.992404146 1.745682677

