11

N -3.493200240 -0.040709425 0.333675518
C -0.868291530 0.043216203 0.118639066
C 0.959328651 -1.805521988 0.108009829
C 3.253430277 -0.456223615 -0.030622369
N 2.895077865 2.004151139 -0.113040733
N 0.366844936 2.268670278 -0.005367805
H -4.139129416 -1.820634506 0.526119085
H -4.405558614 0.828189501 -1.097990632
H 0.674538515 -3.820669916 0.162140675
H 5.150828992 -1.203439428 -0.091919038
H -0.393869437 4.002971795 0.090356423

