11

O 4.554738357 -1.874706846 0.341055220
C 2.990607508 -0.268988095 0.239470630
O -1.851058322 -4.438533730 -0.239827788
C -3.108096203 -2.551872250 -0.299745580
C -2.059367028 0.052687076 -0.169103144
C 0.391713014 0.491287407 0.036085190
C 2.418815122 2.493280649 0.241121891
H -5.192790965 -2.655143553 -0.461621221
H -3.390449046 1.613784064 -0.250242182
H 2.570179917 3.531518065 2.008473434
H 2.863586089 3.595063526 -1.436026938

