10

O 3.451213700 -2.521975706 0.788184225
C 1.596611745 -0.914013529 0.630991439
O 2.122923431 1.519481477 0.566209719
C -0.669051242 1.791920061 0.706572699
C -1.881045535 0.690639889 -1.495776715
C -1.052858756 -1.105249259 0.684103175
H -1.316506882 3.133883122 2.097901340
H -3.906390501 0.944219006 -1.655355034
H -0.877563150 0.675562614 -3.285616848
H 2.714434277 -4.189254949 0.886645155

