13

N 5.807312346 -0.049683791 2.455188722
C 4.252813223 0.089385746 0.951574727
C 2.231989163 0.187048399 -0.927668199
C -0.086218981 1.652011749 -0.068754832
C -2.236707922 -0.762268521 1.358417115
C -2.394547297 0.589088992 -1.192921042
H 1.892140571 -1.740787455 -1.626718351
H 2.914256393 1.286483159 -2.544347285
H -0.628972399 0.335097140 2.405789542
H -3.799520895 -0.337279490 2.615046910
H -1.722973328 -2.743623894 1.243737271
H -2.218027999 -0.701509007 -2.790146154
H -3.998664391 1.851330159 -1.382476352

