10

C -2.081191928 -0.606568940 2.329610525
H -0.612110316 -2.020694387 2.064807417
H -1.359590294 0.919497609 3.503582584
C -4.674977643 -1.649043594 3.097315486
H -4.791345333 -3.699141459 3.331139859
H -5.561202428 -0.733800288 4.724984104
O -5.788917789 -0.840364968 0.761459548
C -3.444612376 0.220826101 -0.091329462
H -3.592313125 2.261844662 -0.383589043
H -2.791738060 -0.665190456 -1.840477991

