9

C 5.581040130 0.629752062 -3.429783941
C 3.424155014 0.306561199 -1.568820771
O 2.024531060 2.556576553 -1.203084216
H 1.320821920 3.062151915 -2.794523818
H 4.154856529 -0.196439223 0.293158259
H 2.178173580 -1.238273222 -2.173543127
H 6.841162573 2.143956593 -2.820866128
H 4.874698412 1.097571641 -5.314699239
H 6.676871107 -1.112366232 -3.585259212

