15

C -2.986647889 0.715943718 -1.657436605
C -2.941899779 -0.252342216 1.019160215
C -0.555970125 0.007256265 -0.427125045
C 2.534968574 -2.635095373 -0.203583937
C 3.655308109 -0.120657161 0.476737669
O 3.571150800 1.630998373 -1.567545754
C 1.611472135 1.692183793 0.264452790
H -3.744149538 -0.516048942 -3.102434621
H -3.304330183 2.711754305 -1.983674350
H -3.260436890 1.074465563 2.545410540
H -3.674232261 -2.131319881 1.360652585
H 1.811702338 -3.478178523 1.558848441
H 0.371804390 -1.855586899 -1.399511420
H 5.248684964 0.011295403 1.759139001
H 1.337234475 3.461953240 1.269625914

