15

C -1.319130143 2.077711676 -0.016652134
C -0.236672116 -0.468495723 -0.298811791
C 2.646816532 -0.487638441 -0.793433091
C 3.725118787 1.659644278 0.643488746
N 2.384921221 3.356929254 1.331699373
C -1.334995868 -2.658709806 1.040878610
N -1.484129766 -2.514528049 -1.718378251
H -1.599769005 3.136381435 -1.759122296
H -2.863741028 2.278549898 1.323224443
H 0.880452579 4.429581021 1.829586781
H 3.036940739 -0.119427932 -2.791881868
H 3.502933066 -2.305209304 -0.343158466
H -3.045652717 -2.352264278 2.127889971
H -0.116564770 -4.144136415 1.755683636
H -3.233930231 -1.948284353 -2.244398049

