10

O 2.104023070 4.182323264 1.250031703
C 1.197959109 2.091261599 1.066909456
N 2.378594645 -0.130662732 0.700420903
C 1.025857329 -2.473088132 0.281564393
H 1.551861367 -3.984186236 1.578378684
H 1.078960523 -3.102509795 -1.678717926
C -1.323924548 -1.227807862 1.053258055
O -2.084545285 -0.517565296 3.231391479
C -1.629009833 1.455847387 1.137647687
H -3.292572212 2.512229991 0.609650724

