12

O -0.886537251 -2.404341880 1.104570563
C -2.129245944 -0.589182326 2.213843465
C -2.936241845 1.459329813 0.859168027
C 0.903972790 1.643029144 -0.712528435
C 1.277279456 -1.028972599 -0.498322385
C 3.285475780 -1.731379869 -1.501312270
H -2.103803805 -0.572294127 4.277606184
H -3.725437225 3.070475705 1.845553890
H -3.495561056 1.227548743 -1.092828788
H 0.402755194 2.437514737 -2.529059476
H 1.951356878 2.878429737 0.541300861
H 4.835382887 -2.774776502 -2.259931882

