14

O 0.521564864 -0.964451925 -2.856939526
C 1.223670212 1.378603944 -1.340817680
C -2.223846975 -0.501877206 -0.996255222
C -1.873636278 -0.166497041 1.809942606
O 0.595632131 -0.899668599 2.496584420
C 2.382184652 0.542616942 1.050726427
H 1.582969132 -2.402515252 -2.404594253
H 2.462053586 2.555029586 -2.492362299
H -2.870689230 -2.409194356 -1.479516528
H -3.278652112 0.950671173 -1.966425100
H -3.135396472 -1.435534230 2.846616651
H -2.257029980 1.802279804 2.319316072
H 3.009630455 2.219560793 2.097826413
H 4.017408736 -0.741575850 0.850883883

