24

C     2.74434  -1.51195   1.95995
N     1.48660  -1.10238   1.36507
C     1.44399  -0.46846   0.18759
O     2.43459  -0.27223  -0.51963
C     0.09045   0.19901  -0.19006
C    -1.17589  -0.54353   0.25604
O    -1.29537  -1.04248   1.35993
O    -2.17261  -0.42126  -0.60925
C    -3.48166  -0.82908  -0.16103
C     0.01392   1.82125   0.45245
C    -0.00344   2.63514  -0.80366
N     0.04084   1.54331  -2.01018
N     0.08480   0.31745  -1.67016
H     2.54221  -1.96531   2.93769
H     3.41581  -0.64577   2.10570
H     3.27012  -2.24158   1.32922
H     0.60542  -1.24971   1.85222
H    -3.77580  -0.24458   0.72762
H    -3.48992  -1.89742   0.08215
H    -4.16807  -0.61904  -0.99125
H     0.92430   1.95054   1.10089
H    -0.91495   1.89499   1.09005
H     0.90005   3.29934  -0.97591
H    -0.94611   3.24044  -0.99122
24

C     2.74449  -1.51143   1.96021
N     1.48686  -1.10219   1.36522
C     1.44445  -0.47141   0.18572
O     2.43597  -0.27160  -0.51966
C     0.09109   0.17584  -0.19966
C    -1.17574  -0.54636   0.25416
O    -1.29523  -1.04203   1.35990
O    -2.17389  -0.42101  -0.60983
C    -3.48219  -0.82855  -0.16081
C     0.01287   1.84393   0.45957
C    -0.00427   2.65272  -0.78689
N     0.04167   1.52586  -2.02700
N     0.08450   0.32261  -1.66224
H     2.54222  -1.96520   2.93774
H     3.41591  -0.64568   2.10591
H     3.27021  -2.24143   1.32930
H     0.60540  -1.25027   1.85188
H    -3.77599  -0.24447   0.72770
H    -3.49003  -1.89727   0.08222
H    -4.16836  -0.61896  -0.99109
H     0.92467   1.94935   1.10028
H    -0.91538   1.89410   1.08966
H     0.90045   3.29873  -0.97704
H    -0.94647   3.24007  -0.99225
24

C     2.74465  -1.51090   1.96047
N     1.48713  -1.10200   1.36537
C     1.44490  -0.47436   0.18386
O     2.43736  -0.27097  -0.51970
C     0.09174   0.15268  -0.20927
C    -1.17559  -0.54918   0.25228
O    -1.29509  -1.04157   1.35986
O    -2.17518  -0.42077  -0.61041
C    -3.48272  -0.82801  -0.16058
C     0.01182   1.86660   0.46669
C    -0.00510   2.67030  -0.77012
N     0.04250   1.50841  -2.04382
N     0.08421   0.32777  -1.65432
H     2.54222  -1.96510   2.93779
H     3.41600  -0.64559   2.10611
H     3.27030  -2.24127   1.32938
H     0.60538  -1.25084   1.85155
H    -3.77619  -0.24437   0.72779
H    -3.49015  -1.89713   0.08228
H    -4.16865  -0.61887  -0.99094
H     0.92503   1.94816   1.09967
H    -0.91581   1.89322   1.08927
H     0.90084   3.29812  -0.97818
H    -0.94683   3.23970  -0.99328
24

C     2.74480  -1.51038   1.96073
N     1.48739  -1.10181   1.36552
C     1.44536  -0.47731   0.18199
O     2.43874  -0.27033  -0.51973
C     0.09238   0.12951  -0.21887
C    -1.17544  -0.55201   0.25040
O    -1.29495  -1.04112   1.35983
O    -2.17647  -0.42052  -0.61099
C    -3.48324  -0.82747  -0.16036
C     0.01077   1.88927   0.47380
C    -0.00592   2.68788  -0.75335
N     0.04333   1.49096  -2.06063
N     0.08391   0.33294  -1.64640
H     2.54223  -1.96499   2.93784
H     3.41610  -0.64551   2.10632
H     3.27040  -2.24111   1.32945
H     0.60536  -1.25141   1.85121
H    -3.77638  -0.24427   0.72788
H    -3.49027  -1.89699   0.08234
H    -4.16894  -0.61879  -0.99079
H     0.92539   1.94697   1.09907
H    -0.91625   1.89234   1.08888
H     0.90124   3.29751  -0.97932
H    -0.94719   3.23933  -0.99432
24

C     2.74496  -1.50986   1.96099
N     1.48766  -1.10162   1.36567
C     1.44582  -0.48026   0.18013
O     2.44013  -0.26970  -0.51976
C     0.09302   0.10634  -0.22847
C    -1.17529  -0.55483   0.24852
O    -1.29482  -1.04066   1.35980
O    -2.17775  -0.42027  -0.61157
C    -3.48377  -0.82694  -0.16014
C     0.00971   1.91195   0.48092
C    -0.00675   2.70545  -0.73658
N     0.04416   1.47351  -2.07745
N     0.08361   0.33810  -1.63849
H     2.54223  -1.96488   2.93789
H     3.41619  -0.64542   2.10652
H     3.27049  -2.24095   1.32953
H     0.60534  -1.25198   1.85087
H    -3.77657  -0.24417   0.72796
H    -3.49039  -1.89685   0.08241
H    -4.16922  -0.61870  -0.99063
H     0.92575   1.94578   1.09846
H    -0.91668   1.89146   1.08849
H     0.90163   3.29690  -0.98046
H    -0.94755   3.23897  -0.99535
24

C     2.74511  -1.50933   1.96125
N     1.48792  -1.10143   1.36581
C     1.44628  -0.48321   0.17826
O     2.44151  -0.26907  -0.51979
C     0.09366   0.08318  -0.23807
C    -1.17514  -0.55766   0.24664
O    -1.29468  -1.04021   1.35976
O    -2.17904  -0.42002  -0.61215
C    -3.48430  -0.82640  -0.15991
C     0.00866   1.93462   0.48804
C    -0.00758   2.72303  -0.71980
N     0.04499   1.45606  -2.09427
N     0.08331   0.34326  -1.63057
H     2.54223  -1.96477   2.93794
H     3.41629  -0.64533   2.10673
H     3.27058  -2.24080   1.32961
H     0.60532  -1.25254   1.85054
H    -3.77677  -0.24407   0.72805
H    -3.49050  -1.89671   0.08247
H    -4.16951  -0.61862  -0.99048
H     0.92612   1.94459   1.09785
H    -0.91711   1.89057   1.08810
H     0.90203   3.29629  -0.98160
H    -0.94791   3.23860  -0.99638
24

C     2.74527  -1.50881   1.96151
N     1.48819  -1.10124   1.36596
C     1.44674  -0.48615   0.17639
O     2.44290  -0.26843  -0.51983
C     0.09431   0.06001  -0.24767
C    -1.17499  -0.56048   0.24475
O    -1.29454  -1.03975   1.35973
O    -2.18032  -0.41977  -0.61272
C    -3.48483  -0.82586  -0.15969
C     0.00761   1.95729   0.49515
C    -0.00841   2.74061  -0.70303
N     0.04582   1.43862  -2.11108
N     0.08301   0.34842  -1.62265
H     2.54224  -1.96466   2.93799
H     3.41638  -0.64524   2.10693
H     3.27067  -2.24064   1.32969
H     0.60530  -1.25311   1.85020
H    -3.77696  -0.24396   0.72814
H    -3.49062  -1.89657   0.08253
H    -4.16980  -0.61854  -0.99033
H     0.92648   1.94340   1.09725
H    -0.91755   1.88969   1.08771
H     0.90242   3.29568  -0.98274
H    -0.94827   3.23823  -0.99741
24

C     2.74542  -1.50829   1.96177
N     1.48845  -1.10105   1.36611
C     1.44720  -0.48910   0.17453
O     2.44428  -0.26780  -0.51986
C     0.09495   0.03685  -0.25728
C    -1.17484  -0.56330   0.24287
O    -1.29440  -1.03930   1.35970
O    -2.18161  -0.41952  -0.61330
C    -3.48535  -0.82533  -0.15947
C     0.00656   1.97996   0.50227
C    -0.00924   2.75819  -0.68626
N     0.04665   1.42117  -2.12790
N     0.08271   0.35359  -1.61473
H     2.54224  -1.96456   2.93805
H     3.41647  -0.64516   2.10714
H     3.27076  -2.24048   1.32977
H     0.60528  -1.25368   1.84986
H    -3.77715  -0.24386   0.72822
H    -3.49074  -1.89642   0.08260
H    -4.17009  -0.61845  -0.99017
H     0.92684   1.94221   1.09664
H    -0.91798   1.88881   1.08732
H     0.90282   3.29507  -0.98388
H    -0.94863   3.23786  -0.99844
24

C     2.74558  -1.50777   1.96203
N     1.48872  -1.10086   1.36626
C     1.44766  -0.49205   0.17266
O     2.44567  -0.26717  -0.51989
C     0.09559   0.01368  -0.26688
C    -1.17469  -0.56613   0.24099
O    -1.29426  -1.03884   1.35966
O    -2.18289  -0.41928  -0.61388
C    -3.48588  -0.82479  -0.15924
C     0.00551   2.00264   0.50939
C    -0.01006   2.77577  -0.66949
N     0.04748   1.40372  -2.14472
N     0.08241   0.35875  -1.60681
H     2.54225  -1.96445   2.93810
H     3.41657  -0.64507   2.10734
H     3.27086  -2.24032   1.32985
H     0.60526  -1.25424   1.84953
H    -3.77735  -0.24376   0.72831
H    -3.49085  -1.89628   0.08266
H    -4.17038  -0.61837  -0.99002
H     0.92720   1.94102   1.09603
H    -0.91841   1.88793   1.08693
H     0.90322   3.29446  -0.98502
H    -0.94899   3.23749  -0.99948
24

C     2.74573  -1.50724   1.96229
N     1.48899  -1.10067   1.36641
C     1.44812  -0.49500   0.17080
O     2.44705  -0.26653  -0.51992
C     0.09624  -0.00949  -0.27648
C    -1.17454  -0.56895   0.23911
O    -1.29412  -1.03839   1.35963
O    -2.18418  -0.41903  -0.61446
C    -3.48641  -0.82425  -0.15902
C     0.00446   2.02531   0.51651
C    -0.01089   2.79334  -0.65272
N     0.04831   1.38627  -2.16154
N     0.08211   0.36391  -1.59889
H     2.54225  -1.96434   2.93815
H     3.41666  -0.64498   2.10755
H     3.27095  -2.24017   1.32993
H     0.60524  -1.25481   1.84919
H    -3.77754  -0.24366   0.72840
H    -3.49097  -1.89614   0.08273
H    -4.17067  -0.61828  -0.98987
H     0.92757   1.93983   1.09542
H    -0.91884   1.88704   1.08655
H     0.90361   3.29386  -0.98615
H    -0.94936   3.23712  -1.00051
24

C     2.74589  -1.50672   1.96255
N     1.48925  -1.10048   1.36656
C     1.44858  -0.49795   0.16893
O     2.44844  -0.26590  -0.51996
C     0.09688  -0.03265  -0.28608
C    -1.17439  -0.57178   0.23723
O    -1.29398  -1.03793   1.35960
O    -2.18546  -0.41878  -0.61504
C    -3.48694  -0.82372  -0.15880
C     0.00341   2.04798   0.52362
C    -0.01172   2.81092  -0.63595
N     0.04914   1.36882  -2.17835
N     0.08182   0.36907  -1.59097
H     2.54226  -1.96423   2.93820
H     3.41676  -0.64490   2.10775
H     3.27104  -2.24001   1.33001
H     0.60522  -1.25538   1.84885
H    -3.77773  -0.24356   0.72848
H    -3.49109  -1.89600   0.08279
H    -4.17096  -0.61820  -0.98972
H     0.92793   1.93864   1.09482
H    -0.91928   1.88616   1.08616
H     0.90401   3.29325  -0.98729
H    -0.94972   3.23675  -1.00154
24

C     2.74604  -1.50620   1.96281
N     1.48952  -1.10029   1.36671
C     1.44904  -0.50090   0.16707
O     2.44982  -0.26527  -0.51999
C     0.09752  -0.05582  -0.29569
C    -1.17424  -0.57460   0.23535
O    -1.29385  -1.03748   1.35956
O    -2.18675  -0.41853  -0.61562
C    -3.48747  -0.82318  -0.15857
C     0.00236   2.07065   0.53074
C    -0.01255   2.82850  -0.61918
N     0.04997   1.35137  -2.19517
N     0.08152   0.37424  -1.58306
H     2.54226  -1.96413   2.93825
H     3.41685  -0.64481   2.10796
H     3.27113  -2.23985   1.33009
H     0.60520  -1.25594   1.84852
H    -3.77793  -0.24345   0.72857
H    -3.49121  -1.89586   0.08285
H    -4.17125  -0.61811  -0.98956
H     0.92829   1.93745   1.09421
H    -0.91971   1.88528   1.08577
H     0.90440   3.29264  -0.98843
H    -0.95008   3.23638  -1.00257
24

C     2.74620  -1.50568   1.96307
N     1.48978  -1.10010   1.36686
C     1.44950  -0.50385   0.16520
O     2.45121  -0.26463  -0.52002
C     0.09816  -0.07898  -0.30529
C    -1.17409  -0.57743   0.23347
O    -1.29371  -1.03702   1.35953
O    -2.18803  -0.41828  -0.61620
C    -3.48799  -0.82264  -0.15835
C     0.00131   2.09333   0.53786
C    -0.01338   2.84608  -0.60241
N     0.05080   1.33392  -2.21199
N     0.08122   0.37940  -1.57514
H     2.54227  -1.96402   2.93830
H     3.41695  -0.64472   2.10816
H     3.27122  -2.23969   1.33017
H     0.60518  -1.25651   1.84818
H    -3.77812  -0.24335   0.72866
H    -3.49132  -1.89571   0.08292
H    -4.17154  -0.61803  -0.98941
H     0.92865   1.93626   1.09360
H    -0.92014   1.88440   1.08538
H     0.90480   3.29203  -0.98957
H    -0.95044   3.23601  -1.00360
24

C     2.74635  -1.50515   1.96333
N     1.49005  -1.09991   1.36700
C     1.44996  -0.50680   0.16333
O     2.45259  -0.26400  -0.52005
C     0.09881  -0.10215  -0.31489
C    -1.17394  -0.58025   0.23159
O    -1.29357  -1.03657   1.35949
O    -2.18932  -0.41803  -0.61677
C    -3.48852  -0.82211  -0.15813
C     0.00026   2.11600   0.54497
C    -0.01421   2.86366  -0.58564
N     0.05163   1.31648  -2.22880
N     0.08092   0.38456  -1.56722
H     2.54227  -1.96391   2.93835
H     3.41704  -0.64463   2.10837
H     3.27132  -2.23954   1.33025
H     0.60516  -1.25708   1.84784
H    -3.77831  -0.24325   0.72874
H    -3.49144  -1.89557   0.08298
H    -4.17183  -0.61794  -0.98926
H     0.92902   1.93507   1.09300
H    -0.92058   1.88351   1.08499
H     0.90519   3.29142  -0.99071
H    -0.95080   3.23565  -1.00464
24

C     2.74651  -1.50463   1.96360
N     1.49031  -1.09972   1.36715
C     1.45042  -0.50975   0.16147
O     2.45397  -0.26336  -0.52009
C     0.09945  -0.12532  -0.32449
C    -1.17379  -0.58308   0.22971
O    -1.29343  -1.03611   1.35946
O    -2.19060  -0.41779  -0.61735
C    -3.48905  -0.82157  -0.15791
C    -0.00079   2.13867   0.55209
C    -0.01503   2.88123  -0.56887
N     0.05246   1.29903  -2.24562
N     0.08062   0.38972  -1.55930
H     2.54228  -1.96380   2.93840
H     3.41714  -0.64455   2.10857
H     3.27141  -2.23938   1.33033
H     0.60514  -1.25765   1.84751
H    -3.77851  -0.24315   0.72883
H    -3.49156  -1.89543   0.08305
H    -4.17212  -0.61786  -0.98910
H     0.92938   1.93388   1.09239
H    -0.92101   1.88263   1.08460
H     0.90559   3.29081  -0.99185
H    -0.95116   3.23528  -1.00567
24

C     2.74666  -1.50411   1.96386
N     1.49058  -1.09953   1.36730
C     1.45088  -0.51270   0.15960
O     2.45536  -0.26273  -0.52012
C     0.10009  -0.14848  -0.33409
C    -1.17364  -0.58590   0.22783
O    -1.29329  -1.03566   1.35943
O    -2.19189  -0.41754  -0.61793
C    -3.48958  -0.82103  -0.15768
C    -0.00185   2.16134   0.55921
C    -0.01586   2.89881  -0.55209
N     0.05329   1.28158  -2.26244
N     0.08032   0.39489  -1.55138
H     2.54228  -1.96370   2.93845
H     3.41723  -0.64446   2.10877
H     3.27150  -2.23922   1.33041
H     0.60512  -1.25821   1.84717
H    -3.77870  -0.24305   0.72892
H    -3.49168  -1.89529   0.08311
H    -4.17240  -0.61777  -0.98895
H     0.92974   1.93269   1.09178
H    -0.92144   1.88175   1.08421
H     0.90599   3.29020  -0.99299
H    -0.95152   3.23491  -1.00670
24

C     2.74682  -1.50359   1.96412
N     1.49084  -1.09934   1.36745
C     1.45134  -0.51565   0.15774
O     2.45674  -0.26210  -0.52015
C     0.10073  -0.17165  -0.34370
C    -1.17349  -0.58872   0.22595
O    -1.29315  -1.03520   1.35939
O    -2.19318  -0.41729  -0.61851
C    -3.49010  -0.82050  -0.15746
C    -0.00290   2.18402   0.56633
C    -0.01669   2.91639  -0.53532
N     0.05412   1.26413  -2.27926
N     0.08002   0.40005  -1.54346
H     2.54229  -1.96359   2.93850
H     3.41733  -0.64437   2.10898
H     3.27159  -2.23906   1.33049
H     0.60510  -1.25878   1.84684
H    -3.77889  -0.24295   0.72900
H    -3.49179  -1.89515   0.08317
H    -4.17269  -0.61769  -0.98880
H     0.93010   1.93150   1.09117
H    -0.92187   1.88086   1.08382
H     0.90638   3.28959  -0.99413
H    -0.95188   3.23454  -1.00773
24

C     2.74697  -1.50306   1.96438
N     1.49111  -1.09915   1.36760
C     1.45179  -0.51860   0.15587
O     2.45813  -0.26146  -0.52019
C     0.10138  -0.19481  -0.35330
C    -1.17334  -0.59155   0.22407
O    -1.29301  -1.03475   1.35936
O    -2.19446  -0.41704  -0.61909
C    -3.49063  -0.81996  -0.15724
C    -0.00395   2.20669   0.57344
C    -0.01752   2.93397  -0.51855
N     0.05495   1.24668  -2.29607
N     0.07972   0.40521  -1.53554
H     2.54229  -1.96348   2.93855
H     3.41742  -0.64428   2.10918
H     3.27168  -2.23891   1.33057
H     0.60508  -1.25935   1.84650
H    -3.77909  -0.24284   0.72909
H    -3.49191  -1.89500   0.08324
H    -4.17298  -0.61761  -0.98865
H     0.93047   1.93031   1.09057
H    -0.92231   1.87998   1.08343
H     0.90678   3.28898  -0.99526
H    -0.95224   3.23417  -1.00877
24

C     2.74713  -1.50254   1.96464
N     1.49137  -1.09895   1.36775
C     1.45225  -0.52155   0.15401
O     2.45951  -0.26083  -0.52022
C     0.10202  -0.21798  -0.36290
C    -1.17319  -0.59437   0.22219
O    -1.29288  -1.03429   1.35933
O    -2.19575  -0.41679  -0.61967
C    -3.49116  -0.81942  -0.15701
C    -0.00500   2.22936   0.58056
C    -0.01835   2.95154  -0.50178
N     0.05578   1.22923  -2.31289
N     0.07943   0.41037  -1.52763
H     2.54230  -1.96337   2.93860
H     3.41751  -0.64420   2.10939
H     3.27178  -2.23875   1.33065
H     0.60506  -1.25991   1.84616
H    -3.77928  -0.24274   0.72918
H    -3.49203  -1.89486   0.08330
H    -4.17327  -0.61752  -0.98849
H     0.93083   1.92912   1.08996
H    -0.92274   1.87910   1.08304
H     0.90717   3.28837  -0.99640
H    -0.95260   3.23380  -1.00980
24

C     2.74729  -1.50202   1.96490
N     1.49164  -1.09876   1.36790
C     1.45271  -0.52450   0.15214
O     2.46090  -0.26020  -0.52025
C     0.10266  -0.24114  -0.37250
C    -1.17304  -0.59720   0.22031
O    -1.29274  -1.03384   1.35929
O    -2.19703  -0.41655  -0.62024
C    -3.49169  -0.81889  -0.15679
C    -0.00605   2.25203   0.58768
C    -0.01917   2.96912  -0.48501
N     0.05661   1.21178  -2.32971
N     0.07913   0.41554  -1.51971
H     2.54230  -1.96327   2.93865
H     3.41761  -0.64411   2.10959
H     3.27187  -2.23859   1.33073
H     0.60504  -1.26048   1.84583
H    -3.77947  -0.24264   0.72926
H    -3.49215  -1.89472   0.08337
H    -4.17356  -0.61744  -0.98834
H     0.93119   1.92793   1.08935
H    -0.92317   1.87822   1.08265
H     0.90757   3.28776  -0.99754
H    -0.95297   3.23343  -1.01083
24

C     2.74744  -1.50150   1.96516
N     1.49190  -1.09857   1.36805
C     1.45317  -0.52745   0.15027
O     2.46228  -0.25956  -0.52028
C     0.10330  -0.26431  -0.38211
C    -1.17289  -0.60002   0.21843
O    -1.29260  -1.03338   1.35926
O    -2.19832  -0.41630  -0.62082
C    -3.49222  -0.81835  -0.15657
C    -0.00710   2.27471   0.59479
C    -0.02000   2.98670  -0.46824
N     0.05744   1.19433  -2.34652
N     0.07883   0.42070  -1.51179
H     2.54231  -1.96316   2.93870
H     3.41770  -0.64402   2.10980
H     3.27196  -2.23843   1.33081
H     0.60502  -1.26105   1.84549
H    -3.77967  -0.24254   0.72935
H    -3.49226  -1.89458   0.08343
H    -4.17385  -0.61735  -0.98819
H     0.93155   1.92674   1.08875
H    -0.92360   1.87733   1.08226
H     0.90796   3.28716  -0.99868
H    -0.95333   3.23306  -1.01186
24

C     2.74729  -1.50202   1.96490
N     1.49164  -1.09876   1.36790
C     1.45271  -0.52450   0.15214
O     2.46090  -0.26020  -0.52025
C     0.10266  -0.24114  -0.37250
C    -1.17304  -0.59720   0.22031
O    -1.29274  -1.03384   1.35929
O    -2.19703  -0.41655  -0.62024
C    -3.49169  -0.81889  -0.15679
C    -0.00605   2.25203   0.58768
C    -0.01917   2.96912  -0.48501
N     0.05661   1.21178  -2.32971
N     0.07913   0.41554  -1.51971
H     2.54230  -1.96327   2.93865
H     3.41761  -0.64411   2.10959
H     3.27187  -2.23859   1.33073
H     0.60504  -1.26048   1.84583
H    -3.77947  -0.24264   0.72926
H    -3.49215  -1.89472   0.08337
H    -4.17356  -0.61744  -0.98834
H     0.93119   1.92793   1.08935
H    -0.92317   1.87822   1.08265
H     0.90757   3.28776  -0.99754
H    -0.95297   3.23343  -1.01083
24

C     2.74713  -1.50254   1.96464
N     1.49137  -1.09895   1.36775
C     1.45225  -0.52155   0.15401
O     2.45951  -0.26083  -0.52022
C     0.10202  -0.21798  -0.36290
C    -1.17319  -0.59437   0.22219
O    -1.29288  -1.03429   1.35933
O    -2.19575  -0.41679  -0.61967
C    -3.49116  -0.81942  -0.15701
C    -0.00500   2.22936   0.58056
C    -0.01835   2.95154  -0.50178
N     0.05578   1.22923  -2.31289
N     0.07943   0.41037  -1.52763
H     2.54230  -1.96337   2.93860
H     3.41751  -0.64420   2.10939
H     3.27178  -2.23875   1.33065
H     0.60506  -1.25991   1.84616
H    -3.77928  -0.24274   0.72918
H    -3.49203  -1.89486   0.08330
H    -4.17327  -0.61752  -0.98849
H     0.93083   1.92912   1.08996
H    -0.92274   1.87910   1.08304
H     0.90717   3.28837  -0.99640
H    -0.95260   3.23380  -1.00980
24

C     2.74697  -1.50306   1.96438
N     1.49111  -1.09915   1.36760
C     1.45179  -0.51860   0.15587
O     2.45813  -0.26146  -0.52019
C     0.10138  -0.19481  -0.35330
C    -1.17334  -0.59155   0.22407
O    -1.29301  -1.03475   1.35936
O    -2.19446  -0.41704  -0.61909
C    -3.49063  -0.81996  -0.15724
C    -0.00395   2.20669   0.57344
C    -0.01752   2.93397  -0.51855
N     0.05495   1.24668  -2.29607
N     0.07972   0.40521  -1.53554
H     2.54229  -1.96348   2.93855
H     3.41742  -0.64428   2.10918
H     3.27168  -2.23891   1.33057
H     0.60508  -1.25935   1.84650
H    -3.77909  -0.24284   0.72909
H    -3.49191  -1.89500   0.08324
H    -4.17298  -0.61761  -0.98865
H     0.93047   1.93031   1.09057
H    -0.92231   1.87998   1.08343
H     0.90678   3.28898  -0.99526
H    -0.95224   3.23417  -1.00877
24

C     2.74682  -1.50359   1.96412
N     1.49084  -1.09934   1.36745
C     1.45134  -0.51565   0.15774
O     2.45674  -0.26210  -0.52015
C     0.10073  -0.17165  -0.34370
C    -1.17349  -0.58872   0.22595
O    -1.29315  -1.03520   1.35939
O    -2.19318  -0.41729  -0.61851
C    -3.49010  -0.82050  -0.15746
C    -0.00290   2.18402   0.56633
C    -0.01669   2.91639  -0.53532
N     0.05412   1.26413  -2.27926
N     0.08002   0.40005  -1.54346
H     2.54229  -1.96359   2.93850
H     3.41733  -0.64437   2.10898
H     3.27159  -2.23906   1.33049
H     0.60510  -1.25878   1.84684
H    -3.77889  -0.24295   0.72900
H    -3.49179  -1.89515   0.08317
H    -4.17269  -0.61769  -0.98880
H     0.93010   1.93150   1.09117
H    -0.92187   1.88086   1.08382
H     0.90638   3.28959  -0.99413
H    -0.95188   3.23454  -1.00773
24

C     2.74666  -1.50411   1.96386
N     1.49058  -1.09953   1.36730
C     1.45088  -0.51270   0.15960
O     2.45536  -0.26273  -0.52012
C     0.10009  -0.14848  -0.33409
C    -1.17364  -0.58590   0.22783
O    -1.29329  -1.03566   1.35943
O    -2.19189  -0.41754  -0.61793
C    -3.48958  -0.82103  -0.15768
C    -0.00185   2.16134   0.55921
C    -0.01586   2.89881  -0.55209
N     0.05329   1.28158  -2.26244
N     0.08032   0.39489  -1.55138
H     2.54228  -1.96370   2.93845
H     3.41723  -0.64446   2.10877
H     3.27150  -2.23922   1.33041
H     0.60512  -1.25821   1.84717
H    -3.77870  -0.24305   0.72892
H    -3.49168  -1.89529   0.08311
H    -4.17240  -0.61777  -0.98895
H     0.92974   1.93269   1.09178
H    -0.92144   1.88175   1.08421
H     0.90599   3.29020  -0.99299
H    -0.95152   3.23491  -1.00670
24

C     2.74651  -1.50463   1.96360
N     1.49031  -1.09972   1.36715
C     1.45042  -0.50975   0.16147
O     2.45397  -0.26336  -0.52009
C     0.09945  -0.12532  -0.32449
C    -1.17379  -0.58308   0.22971
O    -1.29343  -1.03611   1.35946
O    -2.19060  -0.41779  -0.61735
C    -3.48905  -0.82157  -0.15791
C    -0.00079   2.13867   0.55209
C    -0.01503   2.88123  -0.56887
N     0.05246   1.29903  -2.24562
N     0.08062   0.38972  -1.55930
H     2.54228  -1.96380   2.93840
H     3.41714  -0.64455   2.10857
H     3.27141  -2.23938   1.33033
H     0.60514  -1.25765   1.84751
H    -3.77851  -0.24315   0.72883
H    -3.49156  -1.89543   0.08305
H    -4.17212  -0.61786  -0.98910
H     0.92938   1.93388   1.09239
H    -0.92101   1.88263   1.08460
H     0.90559   3.29081  -0.99185
H    -0.95116   3.23528  -1.00567
24

C     2.74635  -1.50515   1.96333
N     1.49005  -1.09991   1.36700
C     1.44996  -0.50680   0.16333
O     2.45259  -0.26400  -0.52005
C     0.09881  -0.10215  -0.31489
C    -1.17394  -0.58025   0.23159
O    -1.29357  -1.03657   1.35949
O    -2.18932  -0.41803  -0.61677
C    -3.48852  -0.82211  -0.15813
C     0.00026   2.11600   0.54497
C    -0.01421   2.86366  -0.58564
N     0.05163   1.31648  -2.22880
N     0.08092   0.38456  -1.56722
H     2.54227  -1.96391   2.93835
H     3.41704  -0.64463   2.10837
H     3.27132  -2.23954   1.33025
H     0.60516  -1.25708   1.84784
H    -3.77831  -0.24325   0.72874
H    -3.49144  -1.89557   0.08298
H    -4.17183  -0.61794  -0.98926
H     0.92902   1.93507   1.09300
H    -0.92058   1.88351   1.08499
H     0.90519   3.29142  -0.99071
H    -0.95080   3.23565  -1.00464
24

C     2.74620  -1.50568   1.96307
N     1.48978  -1.10010   1.36686
C     1.44950  -0.50385   0.16520
O     2.45121  -0.26463  -0.52002
C     0.09816  -0.07898  -0.30529
C    -1.17409  -0.57743   0.23347
O    -1.29371  -1.03702   1.35953
O    -2.18803  -0.41828  -0.61620
C    -3.48799  -0.82264  -0.15835
C     0.00131   2.09333   0.53786
C    -0.01338   2.84608  -0.60241
N     0.05080   1.33392  -2.21199
N     0.08122   0.37940  -1.57514
H     2.54227  -1.96402   2.93830
H     3.41695  -0.64472   2.10816
H     3.27122  -2.23969   1.33017
H     0.60518  -1.25651   1.84818
H    -3.77812  -0.24335   0.72866
H    -3.49132  -1.89571   0.08292
H    -4.17154  -0.61803  -0.98941
H     0.92865   1.93626   1.09360
H    -0.92014   1.88440   1.08538
H     0.90480   3.29203  -0.98957
H    -0.95044   3.23601  -1.00360
24

C     2.74604  -1.50620   1.96281
N     1.48952  -1.10029   1.36671
C     1.44904  -0.50090   0.16707
O     2.44982  -0.26527  -0.51999
C     0.09752  -0.05582  -0.29569
C    -1.17424  -0.57460   0.23535
O    -1.29385  -1.03748   1.35956
O    -2.18675  -0.41853  -0.61562
C    -3.48747  -0.82318  -0.15857
C     0.00236   2.07065   0.53074
C    -0.01255   2.82850  -0.61918
N     0.04997   1.35137  -2.19517
N     0.08152   0.37424  -1.58306
H     2.54226  -1.96413   2.93825
H     3.41685  -0.64481   2.10796
H     3.27113  -2.23985   1.33009
H     0.60520  -1.25594   1.84852
H    -3.77793  -0.24345   0.72857
H    -3.49121  -1.89586   0.08285
H    -4.17125  -0.61811  -0.98956
H     0.92829   1.93745   1.09421
H    -0.91971   1.88528   1.08577
H     0.90440   3.29264  -0.98843
H    -0.95008   3.23638  -1.00257
24

C     2.74589  -1.50672   1.96255
N     1.48925  -1.10048   1.36656
C     1.44858  -0.49795   0.16893
O     2.44844  -0.26590  -0.51996
C     0.09688  -0.03265  -0.28608
C    -1.17439  -0.57178   0.23723
O    -1.29398  -1.03793   1.35960
O    -2.18546  -0.41878  -0.61504
C    -3.48694  -0.82372  -0.15880
C     0.00341   2.04798   0.52362
C    -0.01172   2.81092  -0.63595
N     0.04914   1.36882  -2.17835
N     0.08182   0.36907  -1.59097
H     2.54226  -1.96423   2.93820
H     3.41676  -0.64490   2.10775
H     3.27104  -2.24001   1.33001
H     0.60522  -1.25538   1.84885
H    -3.77773  -0.24356   0.72848
H    -3.49109  -1.89600   0.08279
H    -4.17096  -0.61820  -0.98972
H     0.92793   1.93864   1.09482
H    -0.91928   1.88616   1.08616
H     0.90401   3.29325  -0.98729
H    -0.94972   3.23675  -1.00154
24

C     2.74573  -1.50724   1.96229
N     1.48899  -1.10067   1.36641
C     1.44812  -0.49500   0.17080
O     2.44705  -0.26653  -0.51992
C     0.09624  -0.00949  -0.27648
C    -1.17454  -0.56895   0.23911
O    -1.29412  -1.03839   1.35963
O    -2.18418  -0.41903  -0.61446
C    -3.48641  -0.82425  -0.15902
C     0.00446   2.02531   0.51651
C    -0.01089   2.79334  -0.65272
N     0.04831   1.38627  -2.16154
N     0.08211   0.36391  -1.59889
H     2.54225  -1.96434   2.93815
H     3.41666  -0.64498   2.10755
H     3.27095  -2.24017   1.32993
H     0.60524  -1.25481   1.84919
H    -3.77754  -0.24366   0.72840
H    -3.49097  -1.89614   0.08273
H    -4.17067  -0.61828  -0.98987
H     0.92757   1.93983   1.09542
H    -0.91884   1.88704   1.08655
H     0.90361   3.29386  -0.98615
H    -0.94936   3.23712  -1.00051
24

C     2.74558  -1.50777   1.96203
N     1.48872  -1.10086   1.36626
C     1.44766  -0.49205   0.17266
O     2.44567  -0.26717  -0.51989
C     0.09559   0.01368  -0.26688
C    -1.17469  -0.56613   0.24099
O    -1.29426  -1.03884   1.35966
O    -2.18289  -0.41928  -0.61388
C    -3.48588  -0.82479  -0.15924
C     0.00551   2.00264   0.50939
C    -0.01006   2.77577  -0.66949
N     0.04748   1.40372  -2.14472
N     0.08241   0.35875  -1.60681
H     2.54225  -1.96445   2.93810
H     3.41657  -0.64507   2.10734
H     3.27086  -2.24032   1.32985
H     0.60526  -1.25424   1.84953
H    -3.77735  -0.24376   0.72831
H    -3.49085  -1.89628   0.08266
H    -4.17038  -0.61837  -0.99002
H     0.92720   1.94102   1.09603
H    -0.91841   1.88793   1.08693
H     0.90322   3.29446  -0.98502
H    -0.94899   3.23749  -0.99948
24

C     2.74542  -1.50829   1.96177
N     1.48845  -1.10105   1.36611
C     1.44720  -0.48910   0.17453
O     2.44428  -0.26780  -0.51986
C     0.09495   0.03685  -0.25728
C    -1.17484  -0.56330   0.24287
O    -1.29440  -1.03930   1.35970
O    -2.18161  -0.41952  -0.61330
C    -3.48535  -0.82533  -0.15947
C     0.00656   1.97996   0.50227
C    -0.00924   2.75819  -0.68626
N     0.04665   1.42117  -2.12790
N     0.08271   0.35359  -1.61473
H     2.54224  -1.96456   2.93805
H     3.41647  -0.64516   2.10714
H     3.27076  -2.24048   1.32977
H     0.60528  -1.25368   1.84986
H    -3.77715  -0.24386   0.72822
H    -3.49074  -1.89642   0.08260
H    -4.17009  -0.61845  -0.99017
H     0.92684   1.94221   1.09664
H    -0.91798   1.88881   1.08732
H     0.90282   3.29507  -0.98388
H    -0.94863   3.23786  -0.99844
24

C     2.74527  -1.50881   1.96151
N     1.48819  -1.10124   1.36596
C     1.44674  -0.48615   0.17639
O     2.44290  -0.26843  -0.51983
C     0.09431   0.06001  -0.24767
C    -1.17499  -0.56048   0.24475
O    -1.29454  -1.03975   1.35973
O    -2.18032  -0.41977  -0.61272
C    -3.48483  -0.82586  -0.15969
C     0.00761   1.95729   0.49515
C    -0.00841   2.74061  -0.70303
N     0.04582   1.43862  -2.11108
N     0.08301   0.34842  -1.62265
H     2.54224  -1.96466   2.93799
H     3.41638  -0.64524   2.10693
H     3.27067  -2.24064   1.32969
H     0.60530  -1.25311   1.85020
H    -3.77696  -0.24396   0.72814
H    -3.49062  -1.89657   0.08253
H    -4.16980  -0.61854  -0.99033
H     0.92648   1.94340   1.09725
H    -0.91755   1.88969   1.08771
H     0.90242   3.29568  -0.98274
H    -0.94827   3.23823  -0.99741
24

C     2.74511  -1.50933   1.96125
N     1.48792  -1.10143   1.36581
C     1.44628  -0.48321   0.17826
O     2.44151  -0.26907  -0.51979
C     0.09366   0.08318  -0.23807
C    -1.17514  -0.55766   0.24664
O    -1.29468  -1.04021   1.35976
O    -2.17904  -0.42002  -0.61215
C    -3.48430  -0.82640  -0.15991
C     0.00866   1.93462   0.48804
C    -0.00758   2.72303  -0.71980
N     0.04499   1.45606  -2.09427
N     0.08331   0.34326  -1.63057
H     2.54223  -1.96477   2.93794
H     3.41629  -0.64533   2.10673
H     3.27058  -2.24080   1.32961
H     0.60532  -1.25254   1.85054
H    -3.77677  -0.24407   0.72805
H    -3.49050  -1.89671   0.08247
H    -4.16951  -0.61862  -0.99048
H     0.92612   1.94459   1.09785
H    -0.91711   1.89057   1.08810
H     0.90203   3.29629  -0.98160
H    -0.94791   3.23860  -0.99638
24

C     2.74496  -1.50986   1.96099
N     1.48766  -1.10162   1.36567
C     1.44582  -0.48026   0.18013
O     2.44013  -0.26970  -0.51976
C     0.09302   0.10634  -0.22847
C    -1.17529  -0.55483   0.24852
O    -1.29482  -1.04066   1.35980
O    -2.17775  -0.42027  -0.61157
C    -3.48377  -0.82694  -0.16014
C     0.00971   1.91195   0.48092
C    -0.00675   2.70545  -0.73658
N     0.04416   1.47351  -2.07745
N     0.08361   0.33810  -1.63849
H     2.54223  -1.96488   2.93789
H     3.41619  -0.64542   2.10652
H     3.27049  -2.24095   1.32953
H     0.60534  -1.25198   1.85087
H    -3.77657  -0.24417   0.72796
H    -3.49039  -1.89685   0.08241
H    -4.16922  -0.61870  -0.99063
H     0.92575   1.94578   1.09846
H    -0.91668   1.89146   1.08849
H     0.90163   3.29690  -0.98046
H    -0.94755   3.23897  -0.99535
24

C     2.74480  -1.51038   1.96073
N     1.48739  -1.10181   1.36552
C     1.44536  -0.47731   0.18199
O     2.43874  -0.27033  -0.51973
C     0.09238   0.12951  -0.21887
C    -1.17544  -0.55201   0.25040
O    -1.29495  -1.04112   1.35983
O    -2.17647  -0.42052  -0.61099
C    -3.48324  -0.82747  -0.16036
C     0.01077   1.88927   0.47380
C    -0.00592   2.68788  -0.75335
N     0.04333   1.49096  -2.06063
N     0.08391   0.33294  -1.64640
H     2.54223  -1.96499   2.93784
H     3.41610  -0.64551   2.10632
H     3.27040  -2.24111   1.32945
H     0.60536  -1.25141   1.85121
H    -3.77638  -0.24427   0.72788
H    -3.49027  -1.89699   0.08234
H    -4.16894  -0.61879  -0.99079
H     0.92539   1.94697   1.09907
H    -0.91625   1.89234   1.08888
H     0.90124   3.29751  -0.97932
H    -0.94719   3.23933  -0.99432
24

C     2.74465  -1.51090   1.96047
N     1.48713  -1.10200   1.36537
C     1.44490  -0.47436   0.18386
O     2.43736  -0.27097  -0.51970
C     0.09174   0.15268  -0.20927
C    -1.17559  -0.54918   0.25228
O    -1.29509  -1.04157   1.35986
O    -2.17518  -0.42077  -0.61041
C    -3.48272  -0.82801  -0.16058
C     0.01182   1.86660   0.46669
C    -0.00510   2.67030  -0.77012
N     0.04250   1.50841  -2.04382
N     0.08421   0.32777  -1.65432
H     2.54222  -1.96510   2.93779
H     3.41600  -0.64559   2.10611
H     3.27030  -2.24127   1.32938
H     0.60538  -1.25084   1.85155
H    -3.77619  -0.24437   0.72779
H    -3.49015  -1.89713   0.08228
H    -4.16865  -0.61887  -0.99094
H     0.92503   1.94816   1.09967
H    -0.91581   1.89322   1.08927
H     0.90084   3.29812  -0.97818
H    -0.94683   3.23970  -0.99328
24

C     2.74449  -1.51143   1.96021
N     1.48686  -1.10219   1.36522
C     1.44445  -0.47141   0.18572
O     2.43597  -0.27160  -0.51966
C     0.09109   0.17584  -0.19966
C    -1.17574  -0.54636   0.25416
O    -1.29523  -1.04203   1.35990
O    -2.17389  -0.42101  -0.60983
C    -3.48219  -0.82855  -0.16081
C     0.01287   1.84393   0.45957
C    -0.00427   2.65272  -0.78689
N     0.04167   1.52586  -2.02700
N     0.08450   0.32261  -1.66224
H     2.54222  -1.96520   2.93774
H     3.41591  -0.64568   2.10591
H     3.27021  -2.24143   1.32930
H     0.60540  -1.25027   1.85188
H    -3.77599  -0.24447   0.72770
H    -3.49003  -1.89727   0.08222
H    -4.16836  -0.61896  -0.99109
H     0.92467   1.94935   1.10028
H    -0.91538   1.89410   1.08966
H     0.90045   3.29873  -0.97704
H    -0.94647   3.24007  -0.99225
