12

O 4.034858807 -2.999263890 0.561746696
C 2.536130265 -1.352209818 0.978155180
C -0.037699035 2.063383093 -1.249211580
C 0.288163108 -0.765484155 -0.640547728
C -2.187818345 -0.391604033 0.846096545
O -2.227190751 2.262227332 0.325687986
H 2.743344838 -0.113276666 2.665339098
H 1.485599198 3.311065469 -0.618001802
H 0.210935595 -2.056920173 -2.237192921
H -0.463538707 2.459759534 -3.230879079
H -2.094498983 -0.780047896 2.875024828
H -3.818947922 -1.367452746 0.038820908

