12

O 4.348857420 -0.956740747 -0.590415335
C 2.351218334 -0.481659480 0.650769880
C 0.752491910 1.779384941 -0.362572284
C -0.160785911 -1.325659789 -0.603560440
C -2.461678211 -0.281241779 0.769627190
O -1.502401716 2.256918921 0.917542120
H 2.201200876 -0.551877205 2.734353899
H 1.747998177 3.253603867 -1.387917648
H -0.056403355 -2.726216172 -2.099961255
H -0.058493468 0.642047528 -2.323218016
H -2.743295422 -1.118313181 2.634458441
H -4.231911133 -0.309010832 -0.294278489

