11

C -3.510070713 0.296676740 -0.919510308
C -1.397815108 -1.370759332 -0.032120847
O -1.481341059 -3.590672143 0.255524496
O 0.719074560 0.106395984 0.419018479
C 2.876945754 -1.067681106 1.197071108
N 4.554772428 0.741173301 1.498849655
H -3.905295726 1.735020218 0.502393328
H -2.945593910 1.269407877 -2.646673309
H -5.183046517 -0.841980703 -1.261511676
H 6.298627815 0.263732200 2.070860115
H 4.179715064 2.594278593 1.180720290

