19

C 4.095577503 -1.947643452 0.208282193
C 1.674331626 -0.669819718 1.077565621
O 1.182308718 -1.198074382 3.670189248
C -1.814980483 3.574538228 -2.467474323
C -3.316823842 2.430900771 -0.822999065
C -3.051720287 -0.189973336 0.232776899
C -0.617796616 -1.595863621 -0.392046248
H 5.712635838 -1.309793422 1.323448602
H 4.488481516 -1.514304119 -1.771177482
H 3.937861981 -3.995077805 0.416441875
H 2.507477765 -0.476982275 4.671739710
H -0.135805603 2.685391360 -3.234013700
H -2.220485077 5.471601744 -3.119771970
H 1.857644565 1.381779742 0.826312322
H -4.965896142 3.457657496 -0.150048563
H -4.672122720 -1.295413060 -0.430068407
H -3.258627478 -0.099212946 2.288042370
H -0.218415056 -1.487076831 -2.416887942
H -0.863692919 -3.599770834 0.053050867

