12

C 5.270934523 -0.366522624 -0.324157894
C 3.117439463 0.314715423 -0.498395083
C 0.483376579 1.118622038 -0.687532933
C -1.635268908 -1.619566664 0.399261581
C -3.242121835 0.447392736 0.723075167
O -0.278494381 3.006609690 0.664816195
H 7.190386418 -0.947543336 -0.159488633
H -0.172182547 0.929883959 -2.650877288
H -1.829792705 -2.803471671 -1.255676938
H -0.832937759 -2.495106937 2.064976774
H -3.674445970 1.227953050 2.557958548
H -4.380142346 1.144785731 -0.831036108

