11

C -1.150367037 -1.064652764 -1.103612113
H -0.084808282 -0.633759945 -2.788973126
C -0.564331142 -3.130274841 0.795968933
H 0.336595145 -2.571467614 2.570176497
H 0.420947303 -4.748026159 -0.023975617
O -3.216829514 -3.702913636 1.109553828
C -3.841895036 -1.900055746 -0.781409141
H -5.320719037 -2.361564074 -2.115229184
C -3.094520977 0.686682235 0.019143530
H -3.693597834 2.203567455 -1.217412214
H -3.051226029 1.138681632 2.018133374

