12

C -2.831046593 0.223335732 0.403175658
C -0.355803833 -0.753549892 -0.679303346
C 1.656196888 1.288829726 -0.640707599
C 4.054520085 0.754254930 -0.328148315
O 6.168208102 0.301768248 -0.011192640
O 0.480855023 -2.959387248 0.578257763
H -2.579168191 0.813634887 2.367163408
H -4.258659790 -1.260634956 0.330307762
H -3.515919604 1.848725871 -0.666907272
H -0.675174370 -1.374721218 -2.624314410
H 1.190979386 3.254907136 -0.952818110
H 0.679920927 -2.565766348 2.340794094

