12

C -3.036009671 0.049179763 0.387534205
C -0.454725988 -0.494353583 -0.672347869
C 1.644282770 1.426990381 -0.235908421
C 3.583188601 -0.392876178 -0.261432403
O 5.621304222 -1.159553827 -0.401729129
O 0.973998614 -2.301466739 0.819544438
H -2.899217556 0.701866903 2.340162925
H -4.188208211 -1.659873766 0.340551268
H -3.987335427 1.503133494 -0.725210765
H -0.570924416 -1.180010358 -2.618626920
H 1.896813712 3.363822975 -0.852532178
H 1.441945901 -0.137201846 1.931514432

