11

N 2.827177927 -0.841060898 1.318449407
C 0.698825086 -0.175826563 0.054087269
C -1.914138400 -1.351856571 0.360028920
O -3.041292041 1.148413759 0.135538603
C -0.778221022 2.335382731 -0.136911281
O -0.327054919 4.505588942 -0.356197652
H 3.961899259 0.700399776 1.491410559
H 2.396328780 -0.990630207 -1.441886696
H 0.997021317 -0.561292047 -2.711570548
H -2.580367638 -2.616184695 -1.116465293
H -2.189730238 -2.132555421 2.243071405

