10

N 3.435494467 0.181300230 -0.307804884
C 1.051462891 0.149378183 -0.237097342
C -0.587568160 -2.100408383 -0.797807353
O -3.118974449 -1.202206552 -0.469842153
N -3.088633649 1.288069905 0.209016748
C -0.828353510 2.105491123 0.361130310
H 4.124646914 1.918210666 0.145373418
H -0.355691054 -2.768190088 -2.734744165
H -0.248667228 -3.651889594 0.517391347
H -0.477758423 4.049196291 0.880465977

