12

C -3.128713965 -0.391812999 0.060441945
C -0.302990467 -0.195759205 -0.074503038
C 0.979623648 2.240851714 0.120106684
N 3.370017252 2.449488741 0.121450336
C 2.506924566 -3.819549932 -1.001100291
N 1.067059103 -2.161961695 -0.395675580
H -3.849728480 0.342323642 1.850850357
H -3.723520948 -2.353344124 -0.114799218
H -4.019392873 0.684679352 -1.461402634
H -0.302346108 3.862514877 0.259623444
H 3.895493830 4.292007126 0.236254751
H 3.426975770 -4.978441013 0.431670403

