12

C -3.403195910 -0.441206358 0.177571725
C -0.586319164 -0.341076366 0.006129346
C 0.904975007 1.954108659 0.001961403
N 3.314101389 1.807036868 -0.095941868
C 2.995072534 -2.881558462 -0.821078877
N 0.828967028 -2.314955812 -0.273517655
H -4.093452808 0.467558532 1.897988499
H -4.039357678 -2.398173833 0.193480460
H -4.295101004 0.502303301 -1.429448783
H -0.125206960 3.743037718 0.035817869
H 4.146238887 3.529090901 -0.223812624
H 4.353280550 -3.626165130 0.530848597

