14

C 2.363563347 -2.103792070 0.356927086
C 1.400441789 0.584587344 0.372116554
O 2.668093336 1.908590221 -1.581732192
C -1.421848474 0.842926851 0.047532848
O -2.026162291 3.349058016 -0.064987757
C -3.104944386 -1.007748216 -0.096903965
H 1.569291974 -3.185863762 1.920103793
H 4.413094880 -2.080646345 0.555219922
H 1.896576457 -3.032508122 -1.423014738
H 1.858106414 1.457758146 2.204120446
H 1.904420370 3.549743699 -1.721783065
H -3.800973112 3.540374739 -0.386529740
H -5.107549540 -0.624144546 -0.297351675
H -2.524068426 -2.960646221 -0.024371722

