12

N 4.512331202 -1.863414050 2.448414280
C 3.060993154 -1.151081221 1.004152256
C 1.212647345 -0.201597419 -0.847386340
C -1.276844082 -1.772053257 -0.875370349
N -3.111424861 -0.282682014 0.551181256
C -2.132017511 1.873808678 0.881667276
N 0.243501416 2.282572728 -0.150841775
H 2.131511272 -0.168305717 -2.691250248
H -1.944369521 -2.005983021 -2.815155961
H -1.036928440 -3.641682522 -0.049151436
H -3.077859470 3.415915808 1.844974670
H 1.418459496 3.514501988 0.698766372

