14

C -2.590726267 -0.533596618 0.657530923
C -1.726546856 1.706927795 -0.689980393
C 0.774439208 2.660116027 0.148750850
O 2.402478364 1.079448355 1.723935784
C 2.859917299 -1.265456649 0.890372791
N 1.521693269 -2.649833007 -0.520653241
C -0.877255597 -1.756126021 -1.382053374
H -1.868226710 -0.934058213 2.541948183
H -4.577966246 -1.008039403 0.461921574
H -0.684993822 -0.200032669 -2.884623031
H 0.351656905 4.314550406 1.309929199
H 1.917673719 3.298560150 -1.444927492
H 4.635175475 -1.991342745 1.628748182
H -1.911061851 -3.167145685 -2.459449506

