13

O 3.952259785 -0.060725158 -1.801170308
C 2.659172563 0.613886111 0.419449563
C -0.170822001 0.270530433 0.171851864
C -1.528447547 -1.185842506 1.638723592
C -2.905929787 -2.612146048 3.075869551
C -1.468873610 1.675202374 -1.859004866
O -0.364088600 3.018812124 -3.335203243
H 3.419601020 1.097032370 -3.098985266
H 3.036012146 2.588503533 0.927530645
H 3.373010521 -0.584697004 1.932940193
H -3.734253723 -1.879548286 4.799668840
H -3.248045748 -4.572702320 2.592218886
H -3.540456432 1.423459787 -1.962604905

