12

C -3.371637616 -0.519210851 -0.838880418
C -0.896665049 -0.363746805 -0.329937205
C 1.297191292 -1.881447140 -0.594255919
C 3.309798086 -0.509762655 0.350967079
N 2.857115176 1.779237618 1.257412538
N 0.124138037 1.992261549 0.869036876
H -4.666822019 1.004592789 -0.412447674
H -4.135539409 -2.205022318 -1.697758693
H -0.702385217 2.302212387 2.575897548
H 1.349379443 -3.748807468 -1.395284216
H 5.254062614 -1.147988552 0.418173507
H -0.207295926 3.524057389 -0.242428146

