13

C 3.290411632 0.303610240 0.425585769
C 0.525147671 0.466159303 -0.028421916
O -0.970041414 1.871034088 1.688332853
C -1.543920870 -1.251237083 -0.709001828
C -3.105508941 0.230597024 1.178877543
N -0.631624800 0.689582776 -2.517470448
H 4.152026665 2.159503426 0.157836181
H 4.166809916 -1.021900582 -0.886282082
H 3.663506081 -0.318537848 2.352886697
H -1.606245814 -3.240891377 -1.157937563
H -3.612770638 -0.831323574 2.872778738
H -4.723922211 1.265122470 0.429285569
H 0.510977050 -0.186350240 -3.787634574

