13

C 3.498477583 0.171393473 0.575221540
C 0.717211517 0.516437678 0.696527557
O -0.326481822 2.307240136 1.747635992
C -1.265575343 -1.086979953 -0.579534518
C -3.450836870 0.077670352 0.828779908
N -1.806447992 0.096627668 -2.950439565
H 4.487486689 1.778617995 1.390055949
H 4.068032571 -0.092058367 -1.390070160
H 4.002009150 -1.557663488 1.586763758
H -0.955654551 -3.153154984 -0.475110804
H -3.668347143 0.051704513 2.865091918
H -5.021373833 0.669917379 -0.337866156
H -0.163653722 0.355616259 -3.938218667

