14

O -2.218991721 -1.679377327 2.655234222
C -0.997439589 -0.502047905 0.668109723
C -1.706758060 2.244018933 0.569296114
O 4.698346487 0.388759957 -2.278180230
C 3.579606171 0.294014740 -0.305539688
N 1.564590279 -1.289875898 0.183269249
C -0.340080934 -1.905295691 -1.689961192
H -1.451272814 -3.301900713 2.926044165
H -3.748541489 2.411858889 0.358974964
H -0.797582192 3.185575976 -1.021163287
H -1.160502413 3.183291675 2.320519487
H 4.130663311 1.417131227 1.362051001
H -0.256281293 -0.881930307 -3.465353783
H -0.815912706 -3.892315915 -1.842958653

