14

O -1.937962234 -1.126603334 2.818737181
C -1.519471839 -0.137191754 0.505265825
C -1.268403960 2.465058837 0.268904399
O 2.950599587 2.146654385 -0.482950711
C 3.513985696 -0.115996171 0.006347496
N 2.164307601 -2.179598641 -0.372098582
C -0.288502239 -1.760658794 -1.485086742
H -1.048031621 -2.718986079 2.883606925
H -3.545837881 1.109420697 -0.115956637
H -1.099933194 3.258123790 -1.597266535
H -1.464722108 3.675852436 1.908320406
H 5.352725612 -0.487455062 0.906460029
H -0.257732244 -0.730450201 -3.282766480
H -1.280346236 -3.550525460 -1.739766662

