12

O 0.872558796 0.461732771 -4.074167605
C 0.691201081 0.235548220 -1.525006866
C -1.711507339 -0.747213886 -0.392382430
C -1.196745564 -0.233040629 2.414693440
C 2.371476746 0.646540427 0.289652402
O 1.480900885 0.122927497 2.674328563
H 2.549682908 0.983896754 -4.524213573
H -1.954412036 -2.755241458 -0.825636254
H -3.378139106 0.252611181 -1.079951778
H -1.759507384 -1.767811086 3.664633850
H -2.133738957 1.507953732 3.023224899
H 4.313069919 1.267084062 0.181922951

