12

O 0.762332243 0.774833216 -3.687503732
C 0.682138767 0.060636039 -1.205634779
C -1.711386529 -1.243506856 -0.318933859
C -1.914506406 0.188817560 1.983232721
C 2.688417643 0.138310831 0.482471533
O 2.367238147 0.101314907 2.819892031
H 1.579769466 2.384345138 -3.841034909
H -1.563427417 -3.284900548 -0.098263510
H -3.155636043 -0.759546919 -1.706565856
H -1.778659418 -0.644106536 3.837723598
H -2.423690162 2.164765123 1.865012815
H 4.612249658 0.094025610 -0.303300325

