12

C 2.481440986 0.268362256 -0.769872722
C 0.587851770 -1.711504618 -0.073666097
C 0.806541044 0.690063843 1.467878612
C -1.925637724 1.390023275 0.651131479
O -2.059798717 1.489914784 -2.029963418
C -2.135072574 -0.909055001 -0.822903105
H 2.244448562 1.378900026 -2.466919934
H 4.415250245 -0.209057888 -0.300159978
H 1.096733283 -3.609264932 0.477772993
H 1.507586426 0.897967562 3.373085411
H -3.300434588 2.458709981 1.719697941
H -3.718908712 -2.135059308 -1.226081182

