11

C -1.315117933 -2.550685370 0.667400169
C -0.373614143 -0.024645298 1.566857402
C -1.707028234 1.497214758 3.060402728
H -3.574741355 0.958551558 3.702638813
H -0.971184037 3.303530280 3.674616801
C 2.100613154 0.695791358 0.715626452
C 4.169797328 1.231581588 -0.037565544
H 6.004713609 1.729927350 -0.693046946
H -0.034885705 -4.053875159 1.266055050
H -1.393869435 -2.601014578 -1.393988318
H -3.194314334 -2.940285216 1.413505749

