11

O 4.166532221 -2.029268188 1.518215965
C 2.158119580 -1.473126646 0.702095389
O 0.268475772 -3.328868163 0.347939813
C -1.842059824 -2.121055795 -0.470318591
C -1.411445797 0.238057379 -1.274959288
C -1.109383318 2.543313265 0.225290522
C 1.186383875 0.893245968 -0.492757784
H -3.590462686 -3.138796146 -0.188488181
H -1.820805167 2.558162978 2.145845487
H -1.082575795 4.375928105 -0.688477645
H 2.525458906 1.792821233 -1.751831543

