8

O -1.453299413 2.478441783 0.245001367
C -1.118172170 -0.148214943 0.411632900
C 2.708061799 -2.151672496 -1.218706431
C 1.666146939 -0.853321743 0.564599918
H -0.722804501 3.058445955 -1.310512576
H -2.044987535 -0.753731835 2.148012965
H -2.010432834 -1.145543227 -1.163691061
H 2.791553112 -0.195161995 2.153838084

