8

O -1.577465191 2.383099317 -0.228536996
C -1.020299984 -0.122607037 0.213291649
C 1.707020505 -0.842621226 -1.381071170
C 2.375619195 -0.997347220 0.871513570
H -1.162695874 2.742807740 -1.961355513
H -1.255439437 -0.429591780 2.248477704
H -2.255932106 -1.468693557 -0.734364183
H 3.088360886 -1.082825636 2.763089585

