11

O -1.632649086 3.958689616 -0.147078518
C -1.732872847 1.437295020 -0.117204461
C -0.039146584 -2.985100071 0.004508660
C 0.230036399 -0.159681234 -0.023573011
C 2.697305932 0.933572100 0.054688032
N 4.636768514 1.918049472 0.115034035
H 0.100175402 4.530197712 -0.091285526
H -3.659335361 0.744486161 -0.178709151
H -2.030559759 -3.508874365 -0.055802838
H 0.900407312 -3.840002457 -1.620186645
H 0.788560356 -3.795632103 1.710684741

