11

O -1.358272078 2.499874527 -1.606856838
C -1.614802834 0.616502153 0.195543474
C -0.699175857 -2.035355998 -0.556422280
C 0.413776435 -0.014756134 1.992980798
C 2.811766719 1.000699821 1.270452934
N 4.726338868 1.951575557 0.840173747
H 0.367841559 3.075403714 -1.673800745
H -3.519348437 0.665437197 0.949768376
H -2.028251345 -3.549257491 -0.178391186
H 0.282685870 -2.061078231 -2.352860449
H 0.746537742 -2.531693868 1.110042870

