10

O 3.618811110 -0.425748228 1.592136098
C 1.639724391 0.268402979 0.354196167
C 0.614952011 2.714179145 0.004448472
N -1.887041939 2.927872021 0.207810347
N -3.181928124 0.778663936 0.720584451
C -2.137962362 -1.238778913 -0.214298004
N 0.324128546 -1.311106083 -1.215840302
H 4.016945262 -2.160841825 1.156460723
H 0.296939545 1.238117320 -2.217401705
H -3.276657184 -2.918560622 -0.464482757

