12

C -2.496654283 1.022055105 -0.829203433
C -0.060852526 0.765924064 0.528845393
C 0.892648871 1.916488218 2.545284646
H 0.047018276 3.378239015 3.693421409
C 3.447673959 0.796949795 2.974090980
H 4.699285076 1.358774991 4.500650842
N 4.092294255 -0.906807625 1.397772475
C 1.965085473 -1.101487532 -0.298050231
O 1.846306057 -2.505887806 -2.055013061
H -3.681618633 2.485843254 0.000171493
H -3.521915611 -0.768933661 -0.798168858
H -2.162053612 1.469741618 -2.815695592

