14

C -3.518374963 0.422815203 0.017626080
C -0.711478976 0.179885978 -0.028549585
C 1.102982816 1.822906524 0.965497662
C 3.434391755 0.640745072 0.679678381
N 3.278809507 -1.667360653 -0.373035055
C 0.627683266 -2.341799409 0.094658593
O -0.177153585 -4.394594253 0.468096556
H -4.104485993 2.388088856 -0.161894689
H -4.240382926 -0.316298371 1.804958755
H -4.384755148 -0.674323710 -1.493636430
H 0.388980640 -0.104014664 -2.730927542
H 0.789664486 3.745950315 1.572605987
H 5.266411539 1.510673237 0.945865713
H 2.067690383 -0.918483468 -2.694637298

