16

C 4.342163481 0.998761642 -0.229544995
C 1.900978291 -0.062859226 -1.276794609
C -0.274185163 0.045282335 0.636426518
C -2.779400151 -0.268809535 -0.466180790
C -4.722037454 -1.052658634 1.340696472
O 1.239723322 1.310200601 -3.452374294
H 5.841548684 0.854093299 -1.634907101
H 4.100567910 2.990945334 0.254195829
H 4.929800426 -0.031665309 1.459790547
H 2.197100642 -2.064613115 -1.762589603
H 0.113516037 -1.018545619 2.381959491
H -0.499960003 2.052770466 1.220046171
H -0.548494935 1.001254550 -3.706520008
H -4.704182717 -3.113588031 0.996505460
H -4.326036917 -0.766417925 3.358287344
H -6.624993703 -0.442276623 0.841820057

