16

C 3.677645938 1.831970387 0.043887699
C 1.974249889 -0.191628056 -1.010325556
C 0.417428841 -1.812311755 0.821080464
C -1.845913750 -0.968474075 -0.781785537
C -4.068869985 0.257627307 0.507039843
O -0.293344114 0.819318578 -2.125447103
H 4.307613089 3.095861511 -1.459430705
H 2.678831988 2.952814837 1.458779203
H 5.343481071 0.983787584 0.920540567
H 2.998234821 -1.334061247 -2.405290201
H 0.829607173 -3.826468711 0.877079701
H 0.379450713 -1.057195356 2.739808121
H -2.495384916 -2.450357051 -2.078555061
H -5.150536047 -1.148736354 1.563385182
H -3.432756348 1.721943219 1.813488488
H -5.319738363 1.125909181 -0.884255086

