10

C -3.096459326 -0.102336852 0.084053166
N -0.663222646 -0.728456615 1.186018251
N 1.842912450 2.270389550 1.347750461
C 3.659306146 1.212182662 0.575184085
N 2.957714255 -2.160994685 -0.445971983
N 0.807890837 -2.159116051 0.058037325
H -4.443726433 -1.627956632 0.409644209
H -2.956371378 0.299708579 -1.934603454
H -3.746731074 1.574587724 1.076689733
H 5.638685299 1.421992301 0.182712309

