13

C -2.316535661 -1.280278810 -0.192105117
C 0.056847592 0.289407304 -0.029208779
C 2.455411312 -1.207424218 0.311224854
C -0.073883000 2.874062296 1.026862663
O 0.161515818 2.040108621 -2.143640423
H -2.687822738 -2.169272857 1.631721987
H -3.930873811 -0.103886976 -0.694649680
H -2.119307818 -2.774988378 -1.600262601
H 2.393000783 -2.223415362 2.106063219
H 4.088796485 0.045116115 0.338431260
H 2.682705587 -2.587508913 -1.206659748
H -2.044499305 3.485778605 1.202305479
H 1.268950337 3.501116756 -1.175356529

