12

O -0.546842370 4.882788840 -0.375986996
C -1.046558107 2.710627122 -0.159315553
C -2.648017282 0.555544029 -0.684784837
C 1.313404367 -3.389250185 0.144340343
C 2.262895312 -0.857148797 -0.365938718
C -0.162231060 0.238910307 0.865222539
H -4.405433439 0.333443460 0.341281552
H -2.647090617 -0.224193271 -2.579775776
H 1.900515724 -3.847924869 2.100848633
H 2.300498632 -0.312977707 -2.355898883
H 3.908547094 -0.104919598 0.632083796
H -0.387595659 -0.023183311 2.885681259

