12

O -1.200228575 4.678369210 -1.051392121
C -1.210672959 2.526227268 -0.393471933
C -2.572132552 0.157682433 -0.463866196
C 0.685999723 -2.659205104 -0.609763163
C 2.617467951 -0.656470163 -0.230238996
C 0.379191821 0.656157829 0.900946394
H -3.968926622 -0.189753069 0.989924168
H -2.908889098 -0.752423577 -2.253609633
H 0.446889823 -3.639095487 1.214023482
H 3.375441106 0.209816159 -1.933491464
H 4.065513264 -0.938097899 1.203649830
H 0.184283370 0.583399500 2.935675910

