20

C 4.743975871 1.724028683 0.057694359
C 3.099909229 -0.555857781 -0.432592760
C 1.940383125 -1.837243706 1.502246532
C -2.180295648 -0.488309067 2.049258486
C -3.038358997 0.798224378 -0.033361395
C -4.628402470 -0.484197287 -2.026579448
H 4.004516268 2.827421172 1.636758863
H 6.669774751 1.151852324 0.537849824
H 4.851222402 2.964389164 -1.586094928
H 0.931035369 0.813438771 -1.776446322
H 3.486385112 -1.592145358 -2.163678965
H 2.243342014 -1.257293977 3.439394313
H 1.362839319 -3.779079009 1.231904618
H -1.699555407 0.537042704 3.750106012
H -2.665260013 -2.459099207 2.302517502
H -3.288016026 2.829924965 0.139603480
H -0.631559888 1.254399540 -1.607752776
H -4.055351885 -2.451079682 -2.272887012
H -4.490196839 0.452122059 -3.858390966
H -6.620559007 -0.481427440 -1.476517231

