16

C -3.990798841 0.874376788 -0.441067142
C -1.384616882 -1.890847942 -0.072245628
O -0.910705544 0.902352728 -1.622846680
C 0.866697262 -0.289351614 0.025848241
C 3.148853722 -1.071260966 -1.503535779
C 1.483974184 1.160960482 2.400287397
H -5.340969550 -0.613359388 -0.845967855
H -4.361825419 2.497865352 -1.659522371
H -4.032558576 1.390016454 1.535814720
H -1.232024540 -3.247726290 -1.633702949
H 2.560622060 -1.880284032 -3.303926821
H 4.385015383 0.540021554 -1.872490500
H 4.234720645 -2.487303994 -0.466536757
H 2.625231343 -0.018024586 3.651198332
H -0.225395987 1.689090122 3.416157655
H 2.559112887 2.866505660 1.958171268

