19

C 2.821985640 2.345660857 0.060817415
C 1.295441122 -0.096468931 0.213807677
C 2.791878617 -2.333230938 -0.838060277
C -1.195886098 0.166180663 -1.140898810
C -3.365953263 -1.513853778 -0.502573891
C -4.093083423 0.918604071 0.784533407
O -3.372448290 0.804000005 3.281221497
H 1.790180266 3.925967686 0.896844725
H 4.618412244 2.165020085 1.058853723
H 3.241935697 2.831066775 -1.904405838
H 0.868328361 -0.477701921 2.201179087
H 4.568458316 -2.569253592 0.185741275
H 3.248720210 -2.041534306 -2.832467724
H 1.726220104 -4.092171498 -0.685067067
H -1.096166743 0.770269225 -3.106947023
H -4.572344028 -2.111251367 -2.046743676
H -2.930052293 -3.040535697 0.800184459
H -2.467431331 2.258806417 -0.439386117
H -3.833692057 2.385316117 4.034261880

