11

O 4.828082516 0.001388023 0.405849129
C 2.624541423 -0.359055674 -0.625428558
C 0.392631628 0.339368923 0.805457853
C -1.863794906 1.280163877 -0.694230066
C -1.945075088 -1.276490438 0.417320976
H 4.690219928 -0.871651784 -1.630539774
H 0.741299629 1.136354831 2.666432210
H -2.950547827 2.772870921 0.180468750
H -1.607703606 1.451725441 -2.714526571
H -3.091065443 -1.594201928 2.078759454
H -1.746824015 -2.883068674 -0.829712015

