12

C -3.600470543 1.212742833 -0.195529131
C -0.925207870 0.378218290 -0.006219334
O 0.913715557 1.958962534 -0.010080971
N 0.010110734 -1.857267792 0.193158639
C 3.039655879 -0.390927095 0.358617276
N 4.561270063 -0.727326181 -1.415278029
H -3.851871260 2.247320284 -1.959084365
H -4.897714067 -0.381032263 -0.142133634
H -4.021973804 2.503520036 1.353458398
H -0.963150490 -3.494090981 0.239371929
H 3.371720122 -0.343693107 2.387456459
H 6.340437741 -1.041034475 -0.791081723

