13

C -2.700588877 0.714467294 0.066021248
C -0.002309075 -0.189324423 0.331327741
O 0.412462754 -2.136271681 -1.590093550
C 1.211270793 -4.371687277 -1.086077817
C 1.944784164 1.862646822 -0.082220132
H -3.091250977 2.175373913 1.467535022
H -4.029680976 -0.833486819 0.352493033
H -3.012118771 1.510454936 -1.810452888
H 0.287960114 -1.119260671 2.158590613
H 1.481134569 -4.475709084 1.026204169
H 1.745933443 2.675477176 -1.967085748
H 1.685836694 3.364771013 1.306317895
H 3.855570663 1.115830534 0.112550954

