14

C -2.715605133 -0.924115457 -1.821063663
C -0.704619459 -1.647759960 0.043357234
O -0.588942406 -3.691184351 1.025370006
C 1.378218478 0.291779572 0.660842744
C 3.755532587 -0.351729187 -0.879360771
H 5.294869076 0.924179216 -0.391180545
H 3.393350305 -0.181141209 -2.901616128
H 4.322377935 -2.285331313 -0.460634141
C 0.590681654 2.905600011 0.232008971
N -0.030038765 4.952230776 -0.123083040
H 1.791976280 0.069954411 2.670200173
H -3.928830923 0.528736941 -0.996222738
H -3.836812259 -2.575189883 -2.307095534
H -1.876319538 -0.095770526 -3.515225659

