16

C -2.687698205 -0.728481635 -1.541129405
C -1.125334761 -0.940251091 0.836348053
O -0.875447809 -3.199514029 1.870251080
C 1.268915755 0.728688749 0.973154927
C 3.271384584 -0.351732437 -0.816551830
C 0.724314638 3.386166889 0.447166422
N 0.249487671 5.459378768 0.025712785
H -3.025038639 1.220065862 -2.118280903
H -4.467471277 -1.724975379 -1.288360583
H -1.627524830 -1.709927150 -3.015885959
H -2.676629399 0.478096609 2.524947300
H -2.289655252 -1.252266342 2.974797398
H 1.959802328 0.585383599 2.911680848
H 5.070714828 0.601181785 -0.518411383
H 2.732375488 -0.099442434 -2.788201078
H 3.500760429 -2.359644811 -0.424315873

