12

C 4.779080897 -0.685640108 -0.392244083
C 2.611445356 -0.539551239 0.242121254
C -0.026990448 -0.345295255 0.958728096
C -2.035768336 -1.429884384 -0.853431820
O -3.418655873 0.895262778 -0.827288233
C -1.413030767 2.171296564 0.464546970
H 6.706946438 -0.819494493 -0.950142693
H -0.289649132 -1.007204976 2.891498837
H -1.301591935 -1.874045914 -2.733843579
H -3.153446758 -3.011864073 -0.143776260
H -2.081485554 3.193702497 2.126832140
H -0.376853870 3.452718640 -0.783000650

