16

C 3.278446056 -0.081277858 0.819136994
C 0.522027337 -0.060660643 0.084348115
C -0.540939319 0.508314841 -2.552236911
C -3.016117450 -0.385166927 -1.228819300
C -1.300501563 -2.312771005 0.191934588
C -1.304928719 1.740623370 1.430464170
H 4.126926831 1.781699685 0.539895736
H 4.328434223 -1.440280202 -0.325230597
H 3.508454959 -0.600211070 2.805473780
H -0.449106755 2.446044356 -3.251525641
H 0.012356314 -0.822799548 -4.025579231
H -3.520814297 1.300120689 0.362862092
H -1.913768316 -2.991663770 2.039988718
H -0.814023962 -3.893832080 -1.037861341
H -1.063881340 3.751467408 1.046028454
H -1.719472478 1.325203874 3.406653202

