12

C 2.643914215 0.276742964 -0.662348213
C 1.400858379 -1.944922984 0.488581074
C 0.883534231 0.666961299 1.523871972
C -1.801163675 1.130772882 0.718208536
O -2.067375252 1.287472336 -1.997044711
C -2.348100720 -1.006047859 -0.863809345
H 2.101365378 0.998291195 -2.500063046
H 4.645732713 0.409745045 -0.246932572
H -0.314826331 -2.928055211 -0.514485459
H 1.540212075 1.275805734 3.361330861
H -3.158689330 2.232515338 1.779299430
H -3.945477861 -2.233222946 -1.224479110

