12

C -0.788917552 -3.803486674 0.820540021
C -0.373929632 -1.016797774 0.411274079
C 2.211362746 -0.279716637 -0.142048483
C 4.361355747 0.266378648 -0.583156273
H 6.267303394 0.767141180 -0.986934470
O -2.253659163 0.241101407 -1.045962578
C -2.069388075 0.857347691 1.548524130
H -1.361468210 2.738628875 1.959259674
H -3.617308305 0.199805467 2.727811157
H -2.779330571 -4.167659991 1.203707183
H 0.340663139 -4.471217659 2.410326434
H -0.231660978 -4.858189425 -0.860214330

