16

C 4.962980842 -1.610176596 -0.899331604
C 2.655283827 -0.072390646 -0.365552552
C 0.330686444 -1.007125551 -0.179536095
C -1.997360068 0.393850426 0.411427392
C -4.512042130 -0.788766979 -0.227134006
C -1.909388517 2.628685120 1.479262644
N -1.830212432 4.591934837 2.688826561
H 6.320513697 -1.472420626 0.652590971
H 4.496366606 -3.600728812 -1.166582644
H 5.926726766 -0.938818679 -2.599032388
H 0.050698763 -3.022756738 -0.481676185
H -6.082935817 0.403930887 0.362127820
H -4.705219893 -2.613328884 0.721861188
H -4.678610017 -1.115888152 -2.259433958
H 2.940621531 1.948282879 -0.109829030
H -1.713937697 6.198987054 1.638987322

