16

C 4.487557761 -0.025260404 -0.094933661
C 1.668364910 0.275509786 0.055500104
C -0.315197814 -1.741650776 0.183170908
C -2.310886173 -0.247588496 -0.153303011
C -5.086190834 -0.624699256 -0.181128435
C -0.953370874 2.276542329 -0.530961357
N 0.647413140 2.346316176 1.657401097
H 5.191944841 -0.667657625 1.735937964
H 4.984840004 -1.423201669 -1.522607462
H 5.421437490 1.748822268 -0.569261230
H -0.083982982 -3.760391035 0.411514471
H -6.009340679 0.599080693 1.203852749
H -5.570345943 -2.580320263 0.251852966
H -5.868302444 -0.148968112 -2.030792744
H 1.090963647 1.297077436 -2.001766550
H 1.827975790 3.862579487 1.506569564

