15

C 1.755126318 1.339695560 0.253596087
C 2.945544400 -0.026483227 -1.956886330
C 2.338126103 -1.476576606 0.261131597
O -2.707438360 -1.227725357 2.956392202
C -3.110446512 0.618659484 1.073077219
C -0.942384271 0.960870176 -0.768534721
C 0.418649019 -1.362919028 -1.858851779
H -1.037294556 -1.001836642 3.624589193
H 2.613028021 2.796254240 1.405792511
H 4.525020580 0.194630585 -3.210915540
H 3.266823125 -2.860418549 1.420752773
H -3.545997997 2.459532786 1.935141043
H -4.798025534 0.019788078 0.043228392
H -1.484346366 2.358866528 -2.196297187
H -0.215559169 -2.913594214 -3.029194052

