15

C 1.493886081 1.934165718 0.429089963
C 2.899386346 -0.180341836 -0.964626385
C 1.467148535 -2.182387499 0.187138255
O -1.273777132 -1.041714701 2.835493421
C -2.838403221 0.217650095 1.078841659
C -0.982372236 1.298038456 -0.895296529
C 0.356661296 -1.033751641 -2.050063830
H 0.174588187 0.323879046 2.900076550
H 2.302725731 3.794467918 0.676211754
H 4.809319255 -0.307153458 -1.685458012
H 1.634462430 -4.023350942 1.036345290
H -3.869170266 1.736715322 2.028832928
H -4.186624923 -1.129229656 0.286815658
H -1.836911756 2.650417254 -2.197463300
H -0.172531107 -2.141776567 -3.685919385

