10

N 5.840119068 -1.926325376 1.065556809
C 3.813144479 -1.447179818 0.472547957
C 1.259028462 -0.815962084 -0.239131840
N 0.043028384 -1.933654547 -2.135157461
C -2.321085290 -0.902494590 -2.296987162
C -2.463176329 1.048155360 -0.230390156
N -0.002584182 0.939623986 0.998047741
H -3.990315487 0.591320853 1.084655571
H -2.830465124 2.916112652 -1.034547858
H 0.656229072 1.947479367 2.468736849

