14

O 6.294395755 -2.423782664 2.113113069
C 5.729392834 -0.149877618 0.843093487
C 3.027339551 0.191776097 0.361423028
C 0.788688196 0.432382698 0.081733263
C -1.860637457 0.794635391 -0.357570273
C -6.132960666 0.087949781 0.255551387
N -3.521706324 -0.416124609 0.853102270
H 5.170217639 -2.586773734 3.526581326
H 6.424775670 1.497928527 1.893129143
H 6.751152310 -0.209346581 -0.947350792
H -2.344303297 2.191187765 -1.813837331
H -7.027789847 -1.667334310 -0.357312250
H -6.390551634 1.528051857 -1.216555885
H -7.105721547 0.695854663 1.970491413

