15

C -0.441036717 -3.974970382 -0.075918727
C -0.905800080 -1.189928302 0.216256856
C -1.678746007 4.042167077 0.555561490
C 0.992012504 0.469800314 0.404649153
O 0.771506958 3.008777036 0.629142134
N 3.533704951 -0.169680890 0.303313629
H 0.260676059 -4.858544467 1.663012091
H 0.932556712 -4.376917887 -1.569556441
H -2.181147348 -4.955497149 -0.577800222
H -2.831496178 -0.520723633 0.270885059
H -2.628036358 3.579794161 -1.221685508
H -2.825473772 3.362034104 2.136303410
H -1.448491855 6.079768787 0.705245185
H 3.939483630 -1.909515488 0.952972690
H 4.669950461 1.172438074 1.029387110

