11

O 5.256550155 -0.492445658 0.102467073
C 3.183119785 -0.586573257 -0.452069770
C 0.160111978 0.343339993 1.566864980
C -1.413410072 1.837115507 -0.240347576
C -1.862449402 -0.802395325 0.557921758
H 0.854778420 -2.227930485 -2.434854853
H 1.019934473 0.606731041 3.391725840
H -2.620387653 3.357264794 0.428926067
H -0.618617834 2.149837137 -2.125520991
H -3.379776553 -2.070032774 1.028414053
H -0.583183012 -2.325135464 -1.819153736

