13

C 2.902391521 -0.028393116 1.009529830
C 0.737157311 -0.296808152 -0.842522525
C -1.580730694 -1.944889970 -0.059433493
N -3.183226895 0.379313746 -0.304000298
C -1.248859071 1.776054128 -0.830084707
O -1.772575653 4.107501051 -0.926561669
H 4.166753168 1.494370645 0.434146303
H 2.207060860 0.402579449 2.903366072
H 3.997649495 -1.772755895 1.103675514
H 1.410439423 -0.717601802 -2.744923024
H -1.490066907 -2.671375979 1.867277331
H -2.116035417 -3.445817757 -1.363477650
H -3.957703482 2.767927832 -0.270155946

