11

O -2.531931539 3.077351455 -2.674189876
C -1.802652250 1.514783315 -0.782018087
C 0.068199025 -0.122230849 -1.057984317
C 0.852254596 -1.882950871 1.025443951
C 3.473828714 -1.484416947 1.828466363
N 5.528754224 -1.173288621 2.443016448
H -3.867498558 4.158131973 -2.108366473
H -2.846347441 1.670970087 0.982220680
H 0.682845675 -3.856293521 0.434644435
H 1.084878540 -0.210459498 -2.833701753
H -0.361202081 -1.648289688 2.678641277

