17

C 3.763039052 0.454687494 2.807786559
C 1.474695913 1.243920574 1.263824795
C -0.394967235 -0.865260825 0.843821731
O 0.137902953 -3.061300235 1.176001285
C -3.058374428 -0.186864699 -0.020227364
C -3.063897607 1.396986841 -2.425231460
H -2.106439917 0.391030350 -3.950550169
H -5.013213977 1.727455664 -2.999831015
H -2.152573970 3.225442866 -2.144491121
O -4.478222269 -2.386010270 -0.370376721
H -3.396683801 -3.770860364 0.137056280
H -3.886320778 0.940079485 1.523041702
H 0.486168177 2.843030518 2.124676624
H 2.053675796 1.901013345 -0.613103027
H 3.203727816 -0.159375968 4.694193398
H 4.743477588 -1.118141367 1.912157835
H 5.081507129 2.025766847 3.004357779

