19

C 4.176654350 0.136048697 2.643600822
C 1.606459882 1.206791556 1.956895608
C 0.154023262 -0.424804953 0.116203644
O 0.153926942 -2.916458963 0.495356290
C -2.417510550 0.621612067 -0.782473530
C -3.097613495 -0.187069450 -3.449088306
O -4.149529713 -0.301028288 1.012611180
H 3.983657868 -1.770844437 3.393358544
H 5.405123049 0.046572281 0.982394176
H 5.113820482 1.313900610 4.049979356
H 0.374260051 1.282556327 3.619382015
H 1.745946520 3.132270506 1.218565382
H 1.634147091 -0.027592439 -2.074333300
H 1.455982578 -1.734570634 -1.520462131
H -2.435250713 2.681242844 -0.626335532
H -2.929600799 -2.236524241 -3.635176648
H -5.046566169 0.345396148 -3.846577305
H -1.877509631 0.715825951 -4.849412214
H -3.681526717 -2.050590818 1.282421816

