12

C -3.460451305 0.095515546 -0.334326510
C -0.938569632 1.333490059 0.090979523
O -0.713402868 3.571645568 0.448428608
C 1.356912477 -0.355607717 0.058604583
O 0.772189772 -2.814454930 -0.410379501
C 3.658748223 0.553212693 0.461164814
H -4.937617203 1.518743936 -0.221519498
H -3.493264604 -0.829426118 -2.177870865
H -3.775591690 -1.381439006 1.070221484
H 5.322813231 -0.639782710 0.447389844
H 2.287579009 -3.811390510 -0.410425346
H 3.881697903 2.550563180 0.814158190

