28

C     0.97362   2.85066  -0.01336
C     0.85923   1.66945  -0.94766
C     1.54122   0.57478  -0.85505
C     2.65424   0.32812   0.13142
C    -0.35676  -1.21441   0.10949
C     0.10956  -2.41662  -0.41720
N     0.50684  -3.44665  -0.80719
C     0.02547  -0.62519   1.32412
O     0.70088  -0.95581   2.28928
O    -0.64322   0.64226   1.30779
C    -1.32525   0.76272   0.17615
C    -2.17500   1.95447  -0.05739
N    -1.20295  -0.32144  -0.55581
C    -1.65033  -0.49602  -1.93160
H     1.90848   3.28720  -0.33563
H     1.05833   2.59089   1.05624
H     0.17323   3.59127  -0.12129
H     0.11483   1.76979  -1.78186
H     1.42111  -0.22152  -1.62874
H     2.43966   0.72635   1.13463
H     3.51133   0.88517  -0.26541
H     2.93797  -0.72600   0.22722
H    -1.82129   2.82795   0.51150
H    -3.11884   1.61539   0.35105
H    -2.28366   2.23288  -1.10958
H    -2.53045   0.11251  -2.12846
H    -1.88054  -1.55023  -2.11700
H    -0.82814  -0.18869  -2.61560
28

C     0.97118   2.84745  -0.01339
C     0.83284   1.66017  -0.93362
C     1.53282   0.56368  -0.84774
C     2.65219   0.32811   0.13107
C    -0.34708  -1.20646   0.10220
C     0.11187  -2.41523  -0.41772
N     0.50592  -3.44653  -0.80633
C     0.02630  -0.62077   1.32438
O     0.69959  -0.95680   2.28810
O    -0.64103   0.64289   1.31004
C    -1.30188   0.77580   0.16326
C    -2.17152   1.95394  -0.05744
N    -1.20623  -0.32331  -0.55550
C    -1.64882  -0.49594  -1.93226
H     1.90797   3.28284  -0.33887
H     1.05901   2.59191   1.05643
H     0.17403   3.59183  -0.12144
H     0.11646   1.76977  -1.78191
H     1.42299  -0.22001  -1.63035
H     2.43997   0.72613   1.13476
H     3.50894   0.88673  -0.26721
H     2.93965  -0.72539   0.22639
H    -1.82237   2.82859   0.51149
H    -3.11596   1.61178   0.35189
H    -2.28476   2.23342  -1.10915
H    -2.53026   0.11220  -2.12888
H    -1.88004  -1.55015  -2.11789
H    -0.82801  -0.18834  -2.61621
28

C     0.96874   2.84423  -0.01341
C     0.80645   1.65089  -0.91957
C     1.52442   0.55258  -0.84043
C     2.65015   0.32811   0.13072
C    -0.33740  -1.19851   0.09492
C     0.11418  -2.41384  -0.41825
N     0.50500  -3.44640  -0.80548
C     0.02713  -0.61634   1.32464
O     0.69830  -0.95779   2.28692
O    -0.63885   0.64353   1.31228
C    -1.27851   0.78888   0.15037
C    -2.16805   1.95341  -0.05748
N    -1.20952  -0.32518  -0.55520
C    -1.64732  -0.49587  -1.93292
H     1.90745   3.27847  -0.34212
H     1.05968   2.59292   1.05662
H     0.17483   3.59239  -0.12159
H     0.11808   1.76975  -1.78195
H     1.42487  -0.21851  -1.63196
H     2.44027   0.72591   1.13489
H     3.50655   0.88828  -0.26900
H     2.94134  -0.72479   0.22556
H    -1.82346   2.82923   0.51149
H    -3.11308   1.60816   0.35272
H    -2.28587   2.23397  -1.10872
H    -2.53007   0.11188  -2.12930
H    -1.87954  -1.55007  -2.11878
H    -0.82788  -0.18799  -2.61681
28

C     0.96630   2.84101  -0.01343
C     0.78006   1.64162  -0.90553
C     1.51602   0.54148  -0.83313
C     2.64810   0.32810   0.13038
C    -0.32772  -1.19057   0.08764
C     0.11649  -2.41245  -0.41877
N     0.50408  -3.44628  -0.80463
C     0.02795  -0.61191   1.32490
O     0.69701  -0.95879   2.28573
O    -0.63667   0.64416   1.31453
C    -1.25514   0.80196   0.13748
C    -2.16458   1.95289  -0.05752
N    -1.21280  -0.32705  -0.55489
C    -1.64582  -0.49579  -1.93358
H     1.90693   3.27411  -0.34536
H     1.06035   2.59393   1.05681
H     0.17563   3.59295  -0.12174
H     0.11971   1.76973  -1.78200
H     1.42675  -0.21700  -1.63357
H     2.44057   0.72569   1.13502
H     3.50416   0.88984  -0.27080
H     2.94302  -0.72418   0.22474
H    -1.82454   2.82987   0.51148
H    -3.11021   1.60454   0.35356
H    -2.28698   2.23451  -1.10829
H    -2.52987   0.11157  -2.12971
H    -1.87904  -1.54999  -2.11968
H    -0.82775  -0.18764  -2.61741
28

C     0.96387   2.83779  -0.01346
C     0.75367   1.63234  -0.89148
C     1.50761   0.53038  -0.82582
C     2.64605   0.32810   0.13003
C    -0.31803  -1.18262   0.08036
C     0.11880  -2.41107  -0.41929
N     0.50316  -3.44616  -0.80378
C     0.02878  -0.60748   1.32516
O     0.69573  -0.95978   2.28455
O    -0.63448   0.64479   1.31678
C    -1.23177   0.81504   0.12459
C    -2.16110   1.95236  -0.05756
N    -1.21609  -0.32892  -0.55459
C    -1.64431  -0.49572  -1.93424
H     1.90641   3.26974  -0.34861
H     1.06103   2.59494   1.05700
H     0.17643   3.59351  -0.12189
H     0.12134   1.76971  -1.78204
H     1.42863  -0.21550  -1.63518
H     2.44087   0.72547   1.13515
H     3.50177   0.89140  -0.27260
H     2.94470  -0.72357   0.22391
H    -1.82562   2.83051   0.51148
H    -3.10733   1.60093   0.35440
H    -2.28809   2.23505  -1.10786
H    -2.52968   0.11126  -2.13013
H    -1.87854  -1.54991  -2.12057
H    -0.82762  -0.18728  -2.61802
28

C     0.96143   2.83458  -0.01348
C     0.72728   1.62307  -0.87744
C     1.49921   0.51927  -0.81851
C     2.64401   0.32809   0.12968
C    -0.30835  -1.17468   0.07307
C     0.12111  -2.40968  -0.41981
N     0.50224  -3.44603  -0.80293
C     0.02960  -0.60305   1.32542
O     0.69444  -0.96078   2.28337
O    -0.63230   0.64542   1.31902
C    -1.20840   0.82813   0.11170
C    -2.15763   1.95183  -0.05761
N    -1.21937  -0.33079  -0.55428
C    -1.64281  -0.49565  -1.93489
H     1.90589   3.26538  -0.35185
H     1.06170   2.59595   1.05719
H     0.17723   3.59407  -0.12204
H     0.12297   1.76969  -1.78208
H     1.43051  -0.21400  -1.63679
H     2.44118   0.72525   1.13527
H     3.49938   0.89295  -0.27440
H     2.94638  -0.72296   0.22308
H    -1.82670   2.83115   0.51147
H    -3.10445   1.59731   0.35524
H    -2.28920   2.23560  -1.10743
H    -2.52948   0.11095  -2.13055
H    -1.87804  -1.54984  -2.12147
H    -0.82749  -0.18693  -2.61862
28

C     0.95899   2.83136  -0.01351
C     0.70090   1.61379  -0.86340
C     1.49081   0.50817  -0.81120
C     2.64196   0.32809   0.12933
C    -0.29867  -1.16673   0.06579
C     0.12342  -2.40829  -0.42033
N     0.50132  -3.44591  -0.80207
C     0.03043  -0.59862   1.32568
O     0.69315  -0.96177   2.28219
O    -0.63011   0.64606   1.32127
C    -1.18503   0.84121   0.09881
C    -2.15416   1.95130  -0.05765
N    -1.22266  -0.33266  -0.55397
C    -1.64131  -0.49557  -1.93555
H     1.90537   3.26102  -0.35509
H     1.06238   2.59696   1.05738
H     0.17803   3.59463  -0.12220
H     0.12459   1.76967  -1.78213
H     1.43240  -0.21249  -1.63840
H     2.44148   0.72503   1.13540
H     3.49699   0.89451  -0.27620
H     2.94806  -0.72236   0.22226
H    -1.82778   2.83178   0.51147
H    -3.10157   1.59369   0.35607
H    -2.29031   2.23614  -1.10700
H    -2.52929   0.11064  -2.13096
H    -1.87754  -1.54976  -2.12236
H    -0.82736  -0.18658  -2.61923
28

C     0.95656   2.82814  -0.01353
C     0.67451   1.60451  -0.84935
C     1.48241   0.49707  -0.80390
C     2.63992   0.32808   0.12898
C    -0.28899  -1.15878   0.05851
C     0.12573  -2.40690  -0.42086
N     0.50040  -3.44579  -0.80122
C     0.03125  -0.59419   1.32594
O     0.69186  -0.96276   2.28101
O    -0.62793   0.64669   1.32351
C    -1.16166   0.85429   0.08592
C    -2.15068   1.95077  -0.05769
N    -1.22594  -0.33454  -0.55367
C    -1.63980  -0.49550  -1.93621
H     1.90485   3.25665  -0.35834
H     1.06305   2.59797   1.05757
H     0.17883   3.59519  -0.12235
H     0.12622   1.76965  -1.78217
H     1.43428  -0.21099  -1.64002
H     2.44178   0.72482   1.13553
H     3.49460   0.89606  -0.27800
H     2.94974  -0.72175   0.22143
H    -1.82887   2.83242   0.51146
H    -3.09870   1.59008   0.35691
H    -2.29142   2.23668  -1.10657
H    -2.52910   0.11033  -2.13138
H    -1.87704  -1.54968  -2.12325
H    -0.82723  -0.18623  -2.61983
28

C     0.95412   2.82493  -0.01356
C     0.64812   1.59524  -0.83531
C     1.47401   0.48597  -0.79659
C     2.63787   0.32808   0.12864
C    -0.27931  -1.15084   0.05123
C     0.12804  -2.40551  -0.42138
N     0.49948  -3.44566  -0.80037
C     0.03208  -0.58976   1.32619
O     0.69057  -0.96376   2.27982
O    -0.62575   0.64732   1.32576
C    -1.13829   0.86737   0.07303
C    -2.14721   1.95024  -0.05774
N    -1.22923  -0.33641  -0.55336
C    -1.63830  -0.49542  -1.93687
H     1.90433   3.25229  -0.36158
H     1.06373   2.59899   1.05776
H     0.17963   3.59575  -0.12250
H     0.12785   1.76963  -1.78222
H     1.43616  -0.20948  -1.64163
H     2.44209   0.72460   1.13566
H     3.49221   0.89762  -0.27980
H     2.95142  -0.72114   0.22060
H    -1.82995   2.83306   0.51146
H    -3.09582   1.58646   0.35775
H    -2.29253   2.23722  -1.10614
H    -2.52890   0.11002  -2.13180
H    -1.87655  -1.54960  -2.12415
H    -0.82710  -0.18588  -2.62043
28

C     0.95168   2.82171  -0.01358
C     0.62173   1.58596  -0.82126
C     1.46561   0.47487  -0.78928
C     2.63582   0.32807   0.12829
C    -0.26963  -1.14289   0.04394
C     0.13035  -2.40413  -0.42190
N     0.49856  -3.44554  -0.79952
C     0.03291  -0.58534   1.32645
O     0.68928  -0.96475   2.27864
O    -0.62356   0.64795   1.32801
C    -1.11492   0.88045   0.06014
C    -2.14373   1.94971  -0.05778
N    -1.23251  -0.33828  -0.55305
C    -1.63680  -0.49535  -1.93753
H     1.90381   3.24793  -0.36483
H     1.06440   2.60000   1.05794
H     0.18043   3.59631  -0.12265
H     0.12948   1.76961  -1.78226
H     1.43804  -0.20798  -1.64324
H     2.44239   0.72438   1.13579
H     3.48982   0.89917  -0.28160
H     2.95310  -0.72053   0.21978
H    -1.83103   2.83370   0.51145
H    -3.09294   1.58284   0.35858
H    -2.29364   2.23777  -1.10571
H    -2.52871   0.10970  -2.13221
H    -1.87605  -1.54952  -2.12504
H    -0.82697  -0.18552  -2.62104
28

C     0.94924   2.81849  -0.01361
C     0.59534   1.57669  -0.80722
C     1.45721   0.46377  -0.78198
C     2.63378   0.32807   0.12794
C    -0.25994  -1.13494   0.03666
C     0.13266  -2.40274  -0.42242
N     0.49764  -3.44541  -0.79866
C     0.03373  -0.58091   1.32671
O     0.68800  -0.96574   2.27746
O    -0.62138   0.64859   1.33025
C    -1.09155   0.89353   0.04725
C    -2.14026   1.94918  -0.05782
N    -1.23580  -0.34015  -0.55275
C    -1.63530  -0.49528  -1.93819
H     1.90329   3.24356  -0.36807
H     1.06507   2.60101   1.05813
H     0.18123   3.59687  -0.12280
H     0.13110   1.76959  -1.78231
H     1.43992  -0.20648  -1.64485
H     2.44269   0.72416   1.13592
H     3.48743   0.90073  -0.28340
H     2.95478  -0.71992   0.21895
H    -1.83211   2.83434   0.51145
H    -3.09006   1.57923   0.35942
H    -2.29475   2.23831  -1.10528
H    -2.52852   0.10939  -2.13263
H    -1.87555  -1.54944  -2.12593
H    -0.82684  -0.18517  -2.62164
28

C     0.94681   2.81528  -0.01363
C     0.56895   1.56741  -0.79317
C     1.44881   0.45267  -0.77467
C     2.63173   0.32806   0.12759
C    -0.25026  -1.12700   0.02938
C     0.13498  -2.40135  -0.42295
N     0.49672  -3.44529  -0.79781
C     0.03456  -0.57648   1.32697
O     0.68671  -0.96674   2.27628
O    -0.61919   0.64922   1.33250
C    -1.06818   0.90661   0.03435
C    -2.13679   1.94865  -0.05786
N    -1.23908  -0.34202  -0.55244
C    -1.63379  -0.49520  -1.93884
H     1.90277   3.23920  -0.37132
H     1.06575   2.60202   1.05832
H     0.18203   3.59743  -0.12295
H     0.13273   1.76957  -1.78235
H     1.44180  -0.20497  -1.64646
H     2.44299   0.72394   1.13604
H     3.48504   0.90228  -0.28520
H     2.95646  -0.71932   0.21813
H    -1.83320   2.83498   0.51144
H    -3.08719   1.57561   0.36026
H    -2.29586   2.23885  -1.10485
H    -2.52832   0.10908  -2.13305
H    -1.87505  -1.54936  -2.12683
H    -0.82671  -0.18482  -2.62225
28

C     0.94437   2.81206  -0.01366
C     0.54257   1.55813  -0.77913
C     1.44041   0.44157  -0.76736
C     2.62969   0.32806   0.12724
C    -0.24058  -1.11905   0.02210
C     0.13729  -2.39996  -0.42347
N     0.49580  -3.44517  -0.79696
C     0.03538  -0.57205   1.32723
O     0.68542  -0.96773   2.27510
O    -0.61701   0.64985   1.33474
C    -1.04480   0.91970   0.02146
C    -2.13331   1.94812  -0.05791
N    -1.24237  -0.34389  -0.55213
C    -1.63229  -0.49513  -1.93950
H     1.90225   3.23484  -0.37456
H     1.06642   2.60303   1.05851
H     0.18283   3.59799  -0.12310
H     0.13436   1.76955  -1.78240
H     1.44368  -0.20347  -1.64807
H     2.44330   0.72372   1.13617
H     3.48265   0.90384  -0.28700
H     2.95814  -0.71871   0.21730
H    -1.83428   2.83562   0.51144
H    -3.08431   1.57199   0.36109
H    -2.29697   2.23939  -1.10442
H    -2.52813   0.10877  -2.13347
H    -1.87455  -1.54928  -2.12772
H    -0.82658  -0.18447  -2.62285
28

C     0.94193   2.80884  -0.01368
C     0.51618   1.54886  -0.76509
C     1.43201   0.43047  -0.76005
C     2.62764   0.32805   0.12689
C    -0.23090  -1.11110   0.01481
C     0.13960  -2.39858  -0.42399
N     0.49488  -3.44504  -0.79611
C     0.03621  -0.56762   1.32749
O     0.68413  -0.96872   2.27391
O    -0.61482   0.65049   1.33699
C    -1.02143   0.93278   0.00857
C    -2.12984   1.94759  -0.05795
N    -1.24565  -0.34576  -0.55183
C    -1.63079  -0.49505  -1.94016
H     1.90173   3.23047  -0.37781
H     1.06710   2.60404   1.05870
H     0.18363   3.59855  -0.12325
H     0.13599   1.76952  -1.78244
H     1.44556  -0.20197  -1.64968
H     2.44360   0.72350   1.13630
H     3.48026   0.90539  -0.28880
H     2.95983  -0.71810   0.21647
H    -1.83536   2.83625   0.51143
H    -3.08143   1.56837   0.36193
H    -2.29807   2.23994  -1.10399
H    -2.52793   0.10846  -2.13388
H    -1.87405  -1.54920  -2.12862
H    -0.82645  -0.18412  -2.62345
28

C     0.93949   2.80562  -0.01371
C     0.48979   1.53958  -0.75104
C     1.42361   0.41937  -0.75275
C     2.62559   0.32805   0.12655
C    -0.22122  -1.10316   0.00753
C     0.14191  -2.39719  -0.42451
N     0.49397  -3.44492  -0.79525
C     0.03704  -0.56319   1.32775
O     0.68284  -0.96972   2.27273
O    -0.61264   0.65112   1.33924
C    -0.99806   0.94586  -0.00432
C    -2.12636   1.94706  -0.05799
N    -1.24894  -0.34764  -0.55152
C    -1.62928  -0.49498  -1.94082
H     1.90121   3.22611  -0.38105
H     1.06777   2.60505   1.05889
H     0.18443   3.59911  -0.12340
H     0.13761   1.76950  -1.78248
H     1.44744  -0.20046  -1.65129
H     2.44390   0.72328   1.13643
H     3.47787   0.90695  -0.29060
H     2.96151  -0.71749   0.21565
H    -1.83644   2.83689   0.51143
H    -3.07855   1.56476   0.36277
H    -2.29918   2.24048  -1.10356
H    -2.52774   0.10815  -2.13430
H    -1.87355  -1.54912  -2.12951
H    -0.82632  -0.18376  -2.62406
28

C     0.93706   2.80241  -0.01373
C     0.46340   1.53030  -0.73700
C     1.41521   0.40827  -0.74544
C     2.62355   0.32804   0.12620
C    -0.21153  -1.09521   0.00025
C     0.14422  -2.39580  -0.42504
N     0.49305  -3.44479  -0.79440
C     0.03786  -0.55876   1.32801
O     0.68155  -0.97071   2.27155
O    -0.61046   0.65175   1.34148
C    -0.97469   0.95894  -0.01721
C    -2.12289   1.94654  -0.05803
N    -1.25222  -0.34951  -0.55121
C    -1.62778  -0.49491  -1.94148
H     1.90069   3.22175  -0.38430
H     1.06845   2.60606   1.05908
H     0.18523   3.59967  -0.12355
H     0.13924   1.76948  -1.78253
H     1.44932  -0.19896  -1.65290
H     2.44421   0.72306   1.13656
H     3.47548   0.90850  -0.29240
H     2.96319  -0.71689   0.21482
H    -1.83752   2.83753   0.51142
H    -3.07568   1.56114   0.36360
H    -2.30029   2.24102  -1.10313
H    -2.52755   0.10784  -2.13472
H    -1.87305  -1.54904  -2.13040
H    -0.82619  -0.18341  -2.62466
28

C     0.93462   2.79919  -0.01376
C     0.43701   1.52103  -0.72295
C     1.40681   0.39717  -0.73813
C     2.62150   0.32804   0.12585
C    -0.20185  -1.08726  -0.00703
C     0.14653  -2.39441  -0.42556
N     0.49213  -3.44467  -0.79355
C     0.03869  -0.55434   1.32827
O     0.68027  -0.97170   2.27037
O    -0.60827   0.65238   1.34373
C    -0.95132   0.97202  -0.03010
C    -2.11942   1.94601  -0.05808
N    -1.25551  -0.35138  -0.55091
C    -1.62628  -0.49483  -1.94213
H     1.90017   3.21738  -0.38754
H     1.06912   2.60708   1.05927
H     0.18603   3.60023  -0.12370
H     0.14087   1.76946  -1.78257
H     1.45120  -0.19745  -1.65451
H     2.44451   0.72285   1.13669
H     3.47309   0.91006  -0.29420
H     2.96487  -0.71628   0.21399
H    -1.83861   2.83817   0.51142
H    -3.07280   1.55752   0.36444
H    -2.30140   2.24157  -1.10270
H    -2.52735   0.10753  -2.13513
H    -1.87256  -1.54896  -2.13130
H    -0.82606  -0.18306  -2.62527
28

C     0.93218   2.79597  -0.01378
C     0.41062   1.51175  -0.70891
C     1.39841   0.38606  -0.73082
C     2.61946   0.32803   0.12550
C    -0.19217  -1.07932  -0.01432
C     0.14884  -2.39302  -0.42608
N     0.49121  -3.44455  -0.79270
C     0.03951  -0.54991   1.32853
O     0.67898  -0.97270   2.26919
O    -0.60609   0.65302   1.34597
C    -0.92795   0.98510  -0.04299
C    -2.11594   1.94548  -0.05812
N    -1.25879  -0.35325  -0.55060
C    -1.62477  -0.49476  -1.94279
H     1.89965   3.21302  -0.39079
H     1.06979   2.60809   1.05946
H     0.18683   3.60079  -0.12385
H     0.14249   1.76944  -1.78262
H     1.45308  -0.19595  -1.65612
H     2.44481   0.72263   1.13681
H     3.47070   0.91161  -0.29600
H     2.96655  -0.71567   0.21317
H    -1.83969   2.83881   0.51141
H    -3.06992   1.55391   0.36528
H    -2.30251   2.24211  -1.10226
H    -2.52716   0.10721  -2.13555
H    -1.87206  -1.54888  -2.13219
H    -0.82593  -0.18271  -2.62587
28

C     0.92975   2.79276  -0.01381
C     0.38423   1.50248  -0.69486
C     1.39001   0.37496  -0.72352
C     2.61741   0.32803   0.12515
C    -0.18249  -1.07137  -0.02160
C     0.15115  -2.39164  -0.42660
N     0.49029  -3.44442  -0.79185
C     0.04034  -0.54548   1.32879
O     0.67769  -0.97369   2.26800
O    -0.60390   0.65365   1.34822
C    -0.90458   0.99819  -0.05588
C    -2.11247   1.94495  -0.05816
N    -1.26207  -0.35512  -0.55030
C    -1.62327  -0.49468  -1.94345
H     1.89913   3.20865  -0.39403
H     1.07047   2.60910   1.05965
H     0.18763   3.60135  -0.12400
H     0.14412   1.76942  -1.78266
H     1.45496  -0.19445  -1.65773
H     2.44512   0.72241   1.13694
H     3.46831   0.91317  -0.29780
H     2.96823  -0.71506   0.21234
H    -1.84077   2.83945   0.51141
H    -3.06705   1.55029   0.36612
H    -2.30362   2.24265  -1.10183
H    -2.52696   0.10690  -2.13597
H    -1.87156  -1.54880  -2.13309
H    -0.82580  -0.18236  -2.62647
28

C     0.92731   2.78954  -0.01383
C     0.35785   1.49320  -0.68082
C     1.38160   0.36386  -0.71621
C     2.61536   0.32802   0.12481
C    -0.17281  -1.06342  -0.02888
C     0.15346  -2.39025  -0.42713
N     0.48937  -3.44430  -0.79099
C     0.04116  -0.54105   1.32905
O     0.67640  -0.97468   2.26682
O    -0.60172   0.65428   1.35047
C    -0.88121   1.01127  -0.06877
C    -2.10900   1.94442  -0.05821
N    -1.26536  -0.35699  -0.54999
C    -1.62177  -0.49461  -1.94411
H     1.89861   3.20429  -0.39728
H     1.07114   2.61011   1.05984
H     0.18843   3.60191  -0.12415
H     0.14575   1.76940  -1.78271
H     1.45684  -0.19294  -1.65935
H     2.44542   0.72219   1.13707
H     3.46592   0.91473  -0.29960
H     2.96991  -0.71446   0.21151
H    -1.84185   2.84008   0.51140
H    -3.06417   1.54667   0.36695
H    -2.30473   2.24319  -1.10140
H    -2.52677   0.10659  -2.13639
H    -1.87106  -1.54872  -2.13398
H    -0.82567  -0.18201  -2.62708
28

C     0.92487   2.78632  -0.01386
C     0.33146   1.48392  -0.66678
C     1.37320   0.35276  -0.70890
C     2.61332   0.32802   0.12446
C    -0.16312  -1.05548  -0.03616
C     0.15577  -2.38886  -0.42765
N     0.48845  -3.44418  -0.79014
C     0.04199  -0.53662   1.32930
O     0.67511  -0.97568   2.26564
O    -0.59954   0.65491   1.35271
C    -0.85784   1.02435  -0.08166
C    -2.10552   1.94389  -0.05825
N    -1.26864  -0.35886  -0.54968
C    -1.62026  -0.49454  -1.94477
H     1.89809   3.19993  -0.40052
H     1.07182   2.61112   1.06003
H     0.18923   3.60247  -0.12430
H     0.14738   1.76938  -1.78275
H     1.45872  -0.19144  -1.66096
H     2.44572   0.72197   1.13720
H     3.46353   0.91628  -0.30140
H     2.97159  -0.71385   0.21069
H    -1.84293   2.84072   0.51140
H    -3.06129   1.54306   0.36779
H    -2.30584   2.24374  -1.10097
H    -2.52658   0.10628  -2.13680
H    -1.87056  -1.54864  -2.13487
H    -0.82554  -0.18165  -2.62768
28

C     0.92731   2.78954  -0.01383
C     0.35785   1.49320  -0.68082
C     1.38160   0.36386  -0.71621
C     2.61536   0.32802   0.12481
C    -0.17281  -1.06342  -0.02888
C     0.15346  -2.39025  -0.42713
N     0.48937  -3.44430  -0.79099
C     0.04116  -0.54105   1.32905
O     0.67640  -0.97468   2.26682
O    -0.60172   0.65428   1.35047
C    -0.88121   1.01127  -0.06877
C    -2.10900   1.94442  -0.05821
N    -1.26536  -0.35699  -0.54999
C    -1.62177  -0.49461  -1.94411
H     1.89861   3.20429  -0.39728
H     1.07114   2.61011   1.05984
H     0.18843   3.60191  -0.12415
H     0.14575   1.76940  -1.78271
H     1.45684  -0.19294  -1.65935
H     2.44542   0.72219   1.13707
H     3.46592   0.91473  -0.29960
H     2.96991  -0.71446   0.21151
H    -1.84185   2.84008   0.51140
H    -3.06417   1.54667   0.36695
H    -2.30473   2.24319  -1.10140
H    -2.52677   0.10659  -2.13639
H    -1.87106  -1.54872  -2.13398
H    -0.82567  -0.18201  -2.62708
28

C     0.92975   2.79276  -0.01381
C     0.38423   1.50248  -0.69486
C     1.39001   0.37496  -0.72352
C     2.61741   0.32803   0.12515
C    -0.18249  -1.07137  -0.02160
C     0.15115  -2.39164  -0.42660
N     0.49029  -3.44442  -0.79185
C     0.04034  -0.54548   1.32879
O     0.67769  -0.97369   2.26800
O    -0.60390   0.65365   1.34822
C    -0.90458   0.99819  -0.05588
C    -2.11247   1.94495  -0.05816
N    -1.26207  -0.35512  -0.55030
C    -1.62327  -0.49468  -1.94345
H     1.89913   3.20865  -0.39403
H     1.07047   2.60910   1.05965
H     0.18763   3.60135  -0.12400
H     0.14412   1.76942  -1.78266
H     1.45496  -0.19445  -1.65773
H     2.44512   0.72241   1.13694
H     3.46831   0.91317  -0.29780
H     2.96823  -0.71506   0.21234
H    -1.84077   2.83945   0.51141
H    -3.06705   1.55029   0.36612
H    -2.30362   2.24265  -1.10183
H    -2.52696   0.10690  -2.13597
H    -1.87156  -1.54880  -2.13309
H    -0.82580  -0.18236  -2.62647
28

C     0.93218   2.79597  -0.01378
C     0.41062   1.51175  -0.70891
C     1.39841   0.38606  -0.73082
C     2.61946   0.32803   0.12550
C    -0.19217  -1.07932  -0.01432
C     0.14884  -2.39302  -0.42608
N     0.49121  -3.44455  -0.79270
C     0.03951  -0.54991   1.32853
O     0.67898  -0.97270   2.26919
O    -0.60609   0.65302   1.34597
C    -0.92795   0.98510  -0.04299
C    -2.11594   1.94548  -0.05812
N    -1.25879  -0.35325  -0.55060
C    -1.62477  -0.49476  -1.94279
H     1.89965   3.21302  -0.39079
H     1.06979   2.60809   1.05946
H     0.18683   3.60079  -0.12385
H     0.14249   1.76944  -1.78262
H     1.45308  -0.19595  -1.65612
H     2.44481   0.72263   1.13681
H     3.47070   0.91161  -0.29600
H     2.96655  -0.71567   0.21317
H    -1.83969   2.83881   0.51141
H    -3.06992   1.55391   0.36528
H    -2.30251   2.24211  -1.10226
H    -2.52716   0.10721  -2.13555
H    -1.87206  -1.54888  -2.13219
H    -0.82593  -0.18271  -2.62587
28

C     0.93462   2.79919  -0.01376
C     0.43701   1.52103  -0.72295
C     1.40681   0.39717  -0.73813
C     2.62150   0.32804   0.12585
C    -0.20185  -1.08726  -0.00703
C     0.14653  -2.39441  -0.42556
N     0.49213  -3.44467  -0.79355
C     0.03869  -0.55434   1.32827
O     0.68027  -0.97170   2.27037
O    -0.60827   0.65238   1.34373
C    -0.95132   0.97202  -0.03010
C    -2.11942   1.94601  -0.05808
N    -1.25551  -0.35138  -0.55091
C    -1.62628  -0.49483  -1.94213
H     1.90017   3.21738  -0.38754
H     1.06912   2.60708   1.05927
H     0.18603   3.60023  -0.12370
H     0.14087   1.76946  -1.78257
H     1.45120  -0.19745  -1.65451
H     2.44451   0.72285   1.13669
H     3.47309   0.91006  -0.29420
H     2.96487  -0.71628   0.21399
H    -1.83861   2.83817   0.51142
H    -3.07280   1.55752   0.36444
H    -2.30140   2.24157  -1.10270
H    -2.52735   0.10753  -2.13513
H    -1.87256  -1.54896  -2.13130
H    -0.82606  -0.18306  -2.62527
28

C     0.93706   2.80241  -0.01373
C     0.46340   1.53030  -0.73700
C     1.41521   0.40827  -0.74544
C     2.62355   0.32804   0.12620
C    -0.21153  -1.09521   0.00025
C     0.14422  -2.39580  -0.42504
N     0.49305  -3.44479  -0.79440
C     0.03786  -0.55876   1.32801
O     0.68155  -0.97071   2.27155
O    -0.61046   0.65175   1.34148
C    -0.97469   0.95894  -0.01721
C    -2.12289   1.94654  -0.05803
N    -1.25222  -0.34951  -0.55121
C    -1.62778  -0.49491  -1.94148
H     1.90069   3.22175  -0.38430
H     1.06845   2.60606   1.05908
H     0.18523   3.59967  -0.12355
H     0.13924   1.76948  -1.78253
H     1.44932  -0.19896  -1.65290
H     2.44421   0.72306   1.13656
H     3.47548   0.90850  -0.29240
H     2.96319  -0.71689   0.21482
H    -1.83752   2.83753   0.51142
H    -3.07568   1.56114   0.36360
H    -2.30029   2.24102  -1.10313
H    -2.52755   0.10784  -2.13472
H    -1.87305  -1.54904  -2.13040
H    -0.82619  -0.18341  -2.62466
28

C     0.93949   2.80562  -0.01371
C     0.48979   1.53958  -0.75104
C     1.42361   0.41937  -0.75275
C     2.62559   0.32805   0.12655
C    -0.22122  -1.10316   0.00753
C     0.14191  -2.39719  -0.42451
N     0.49397  -3.44492  -0.79525
C     0.03704  -0.56319   1.32775
O     0.68284  -0.96972   2.27273
O    -0.61264   0.65112   1.33924
C    -0.99806   0.94586  -0.00432
C    -2.12636   1.94706  -0.05799
N    -1.24894  -0.34764  -0.55152
C    -1.62928  -0.49498  -1.94082
H     1.90121   3.22611  -0.38105
H     1.06777   2.60505   1.05889
H     0.18443   3.59911  -0.12340
H     0.13761   1.76950  -1.78248
H     1.44744  -0.20046  -1.65129
H     2.44390   0.72328   1.13643
H     3.47787   0.90695  -0.29060
H     2.96151  -0.71749   0.21565
H    -1.83644   2.83689   0.51143
H    -3.07855   1.56476   0.36277
H    -2.29918   2.24048  -1.10356
H    -2.52774   0.10815  -2.13430
H    -1.87355  -1.54912  -2.12951
H    -0.82632  -0.18376  -2.62406
28

C     0.94193   2.80884  -0.01368
C     0.51618   1.54886  -0.76509
C     1.43201   0.43047  -0.76005
C     2.62764   0.32805   0.12689
C    -0.23090  -1.11110   0.01481
C     0.13960  -2.39858  -0.42399
N     0.49488  -3.44504  -0.79611
C     0.03621  -0.56762   1.32749
O     0.68413  -0.96872   2.27391
O    -0.61482   0.65049   1.33699
C    -1.02143   0.93278   0.00857
C    -2.12984   1.94759  -0.05795
N    -1.24565  -0.34576  -0.55183
C    -1.63079  -0.49505  -1.94016
H     1.90173   3.23047  -0.37781
H     1.06710   2.60404   1.05870
H     0.18363   3.59855  -0.12325
H     0.13599   1.76952  -1.78244
H     1.44556  -0.20197  -1.64968
H     2.44360   0.72350   1.13630
H     3.48026   0.90539  -0.28880
H     2.95983  -0.71810   0.21647
H    -1.83536   2.83625   0.51143
H    -3.08143   1.56837   0.36193
H    -2.29807   2.23994  -1.10399
H    -2.52793   0.10846  -2.13388
H    -1.87405  -1.54920  -2.12862
H    -0.82645  -0.18412  -2.62345
28

C     0.94437   2.81206  -0.01366
C     0.54257   1.55813  -0.77913
C     1.44041   0.44157  -0.76736
C     2.62969   0.32806   0.12724
C    -0.24058  -1.11905   0.02210
C     0.13729  -2.39996  -0.42347
N     0.49580  -3.44517  -0.79696
C     0.03538  -0.57205   1.32723
O     0.68542  -0.96773   2.27510
O    -0.61701   0.64985   1.33474
C    -1.04480   0.91970   0.02146
C    -2.13331   1.94812  -0.05791
N    -1.24237  -0.34389  -0.55213
C    -1.63229  -0.49513  -1.93950
H     1.90225   3.23484  -0.37456
H     1.06642   2.60303   1.05851
H     0.18283   3.59799  -0.12310
H     0.13436   1.76955  -1.78240
H     1.44368  -0.20347  -1.64807
H     2.44330   0.72372   1.13617
H     3.48265   0.90384  -0.28700
H     2.95814  -0.71871   0.21730
H    -1.83428   2.83562   0.51144
H    -3.08431   1.57199   0.36109
H    -2.29697   2.23939  -1.10442
H    -2.52813   0.10877  -2.13347
H    -1.87455  -1.54928  -2.12772
H    -0.82658  -0.18447  -2.62285
28

C     0.94681   2.81528  -0.01363
C     0.56895   1.56741  -0.79317
C     1.44881   0.45267  -0.77467
C     2.63173   0.32806   0.12759
C    -0.25026  -1.12700   0.02938
C     0.13498  -2.40135  -0.42295
N     0.49672  -3.44529  -0.79781
C     0.03456  -0.57648   1.32697
O     0.68671  -0.96674   2.27628
O    -0.61919   0.64922   1.33250
C    -1.06818   0.90661   0.03435
C    -2.13679   1.94865  -0.05786
N    -1.23908  -0.34202  -0.55244
C    -1.63379  -0.49520  -1.93884
H     1.90277   3.23920  -0.37132
H     1.06575   2.60202   1.05832
H     0.18203   3.59743  -0.12295
H     0.13273   1.76957  -1.78235
H     1.44180  -0.20497  -1.64646
H     2.44299   0.72394   1.13604
H     3.48504   0.90228  -0.28520
H     2.95646  -0.71932   0.21813
H    -1.83320   2.83498   0.51144
H    -3.08719   1.57561   0.36026
H    -2.29586   2.23885  -1.10485
H    -2.52832   0.10908  -2.13305
H    -1.87505  -1.54936  -2.12683
H    -0.82671  -0.18482  -2.62225
28

C     0.94924   2.81849  -0.01361
C     0.59534   1.57669  -0.80722
C     1.45721   0.46377  -0.78198
C     2.63378   0.32807   0.12794
C    -0.25994  -1.13494   0.03666
C     0.13266  -2.40274  -0.42242
N     0.49764  -3.44541  -0.79866
C     0.03373  -0.58091   1.32671
O     0.68800  -0.96574   2.27746
O    -0.62138   0.64859   1.33025
C    -1.09155   0.89353   0.04725
C    -2.14026   1.94918  -0.05782
N    -1.23580  -0.34015  -0.55275
C    -1.63530  -0.49528  -1.93819
H     1.90329   3.24356  -0.36807
H     1.06507   2.60101   1.05813
H     0.18123   3.59687  -0.12280
H     0.13110   1.76959  -1.78231
H     1.43992  -0.20648  -1.64485
H     2.44269   0.72416   1.13592
H     3.48743   0.90073  -0.28340
H     2.95478  -0.71992   0.21895
H    -1.83211   2.83434   0.51145
H    -3.09006   1.57923   0.35942
H    -2.29475   2.23831  -1.10528
H    -2.52852   0.10939  -2.13263
H    -1.87555  -1.54944  -2.12593
H    -0.82684  -0.18517  -2.62164
28

C     0.95168   2.82171  -0.01358
C     0.62173   1.58596  -0.82126
C     1.46561   0.47487  -0.78928
C     2.63582   0.32807   0.12829
C    -0.26963  -1.14289   0.04394
C     0.13035  -2.40413  -0.42190
N     0.49856  -3.44554  -0.79952
C     0.03291  -0.58534   1.32645
O     0.68928  -0.96475   2.27864
O    -0.62356   0.64795   1.32801
C    -1.11492   0.88045   0.06014
C    -2.14373   1.94971  -0.05778
N    -1.23251  -0.33828  -0.55305
C    -1.63680  -0.49535  -1.93753
H     1.90381   3.24793  -0.36483
H     1.06440   2.60000   1.05794
H     0.18043   3.59631  -0.12265
H     0.12948   1.76961  -1.78226
H     1.43804  -0.20798  -1.64324
H     2.44239   0.72438   1.13579
H     3.48982   0.89917  -0.28160
H     2.95310  -0.72053   0.21978
H    -1.83103   2.83370   0.51145
H    -3.09294   1.58284   0.35858
H    -2.29364   2.23777  -1.10571
H    -2.52871   0.10970  -2.13221
H    -1.87605  -1.54952  -2.12504
H    -0.82697  -0.18552  -2.62104
28

C     0.95412   2.82493  -0.01356
C     0.64812   1.59524  -0.83531
C     1.47401   0.48597  -0.79659
C     2.63787   0.32808   0.12864
C    -0.27931  -1.15084   0.05123
C     0.12804  -2.40551  -0.42138
N     0.49948  -3.44566  -0.80037
C     0.03208  -0.58976   1.32619
O     0.69057  -0.96376   2.27982
O    -0.62575   0.64732   1.32576
C    -1.13829   0.86737   0.07303
C    -2.14721   1.95024  -0.05774
N    -1.22923  -0.33641  -0.55336
C    -1.63830  -0.49542  -1.93687
H     1.90433   3.25229  -0.36158
H     1.06373   2.59899   1.05776
H     0.17963   3.59575  -0.12250
H     0.12785   1.76963  -1.78222
H     1.43616  -0.20948  -1.64163
H     2.44209   0.72460   1.13566
H     3.49221   0.89762  -0.27980
H     2.95142  -0.72114   0.22060
H    -1.82995   2.83306   0.51146
H    -3.09582   1.58646   0.35775
H    -2.29253   2.23722  -1.10614
H    -2.52890   0.11002  -2.13180
H    -1.87655  -1.54960  -2.12415
H    -0.82710  -0.18588  -2.62043
28

C     0.95656   2.82814  -0.01353
C     0.67451   1.60451  -0.84935
C     1.48241   0.49707  -0.80390
C     2.63992   0.32808   0.12898
C    -0.28899  -1.15878   0.05851
C     0.12573  -2.40690  -0.42086
N     0.50040  -3.44579  -0.80122
C     0.03125  -0.59419   1.32594
O     0.69186  -0.96276   2.28101
O    -0.62793   0.64669   1.32351
C    -1.16166   0.85429   0.08592
C    -2.15068   1.95077  -0.05769
N    -1.22594  -0.33454  -0.55367
C    -1.63980  -0.49550  -1.93621
H     1.90485   3.25665  -0.35834
H     1.06305   2.59797   1.05757
H     0.17883   3.59519  -0.12235
H     0.12622   1.76965  -1.78217
H     1.43428  -0.21099  -1.64002
H     2.44178   0.72482   1.13553
H     3.49460   0.89606  -0.27800
H     2.94974  -0.72175   0.22143
H    -1.82887   2.83242   0.51146
H    -3.09870   1.59008   0.35691
H    -2.29142   2.23668  -1.10657
H    -2.52910   0.11033  -2.13138
H    -1.87704  -1.54968  -2.12325
H    -0.82723  -0.18623  -2.61983
28

C     0.95899   2.83136  -0.01351
C     0.70090   1.61379  -0.86340
C     1.49081   0.50817  -0.81120
C     2.64196   0.32809   0.12933
C    -0.29867  -1.16673   0.06579
C     0.12342  -2.40829  -0.42033
N     0.50132  -3.44591  -0.80207
C     0.03043  -0.59862   1.32568
O     0.69315  -0.96177   2.28219
O    -0.63011   0.64606   1.32127
C    -1.18503   0.84121   0.09881
C    -2.15416   1.95130  -0.05765
N    -1.22266  -0.33266  -0.55397
C    -1.64131  -0.49557  -1.93555
H     1.90537   3.26102  -0.35509
H     1.06238   2.59696   1.05738
H     0.17803   3.59463  -0.12220
H     0.12459   1.76967  -1.78213
H     1.43240  -0.21249  -1.63840
H     2.44148   0.72503   1.13540
H     3.49699   0.89451  -0.27620
H     2.94806  -0.72236   0.22226
H    -1.82778   2.83178   0.51147
H    -3.10157   1.59369   0.35607
H    -2.29031   2.23614  -1.10700
H    -2.52929   0.11064  -2.13096
H    -1.87754  -1.54976  -2.12236
H    -0.82736  -0.18658  -2.61923
28

C     0.96143   2.83458  -0.01348
C     0.72728   1.62307  -0.87744
C     1.49921   0.51927  -0.81851
C     2.64401   0.32809   0.12968
C    -0.30835  -1.17468   0.07307
C     0.12111  -2.40968  -0.41981
N     0.50224  -3.44603  -0.80293
C     0.02960  -0.60305   1.32542
O     0.69444  -0.96078   2.28337
O    -0.63230   0.64542   1.31902
C    -1.20840   0.82813   0.11170
C    -2.15763   1.95183  -0.05761
N    -1.21937  -0.33079  -0.55428
C    -1.64281  -0.49565  -1.93489
H     1.90589   3.26538  -0.35185
H     1.06170   2.59595   1.05719
H     0.17723   3.59407  -0.12204
H     0.12297   1.76969  -1.78208
H     1.43051  -0.21400  -1.63679
H     2.44118   0.72525   1.13527
H     3.49938   0.89295  -0.27440
H     2.94638  -0.72296   0.22308
H    -1.82670   2.83115   0.51147
H    -3.10445   1.59731   0.35524
H    -2.28920   2.23560  -1.10743
H    -2.52948   0.11095  -2.13055
H    -1.87804  -1.54984  -2.12147
H    -0.82749  -0.18693  -2.61862
28

C     0.96387   2.83779  -0.01346
C     0.75367   1.63234  -0.89148
C     1.50761   0.53038  -0.82582
C     2.64605   0.32810   0.13003
C    -0.31803  -1.18262   0.08036
C     0.11880  -2.41107  -0.41929
N     0.50316  -3.44616  -0.80378
C     0.02878  -0.60748   1.32516
O     0.69573  -0.95978   2.28455
O    -0.63448   0.64479   1.31678
C    -1.23177   0.81504   0.12459
C    -2.16110   1.95236  -0.05756
N    -1.21609  -0.32892  -0.55459
C    -1.64431  -0.49572  -1.93424
H     1.90641   3.26974  -0.34861
H     1.06103   2.59494   1.05700
H     0.17643   3.59351  -0.12189
H     0.12134   1.76971  -1.78204
H     1.42863  -0.21550  -1.63518
H     2.44087   0.72547   1.13515
H     3.50177   0.89140  -0.27260
H     2.94470  -0.72357   0.22391
H    -1.82562   2.83051   0.51148
H    -3.10733   1.60093   0.35440
H    -2.28809   2.23505  -1.10786
H    -2.52968   0.11126  -2.13013
H    -1.87854  -1.54991  -2.12057
H    -0.82762  -0.18728  -2.61802
28

C     0.96630   2.84101  -0.01343
C     0.78006   1.64162  -0.90553
C     1.51602   0.54148  -0.83313
C     2.64810   0.32810   0.13038
C    -0.32772  -1.19057   0.08764
C     0.11649  -2.41245  -0.41877
N     0.50408  -3.44628  -0.80463
C     0.02795  -0.61191   1.32490
O     0.69701  -0.95879   2.28573
O    -0.63667   0.64416   1.31453
C    -1.25514   0.80196   0.13748
C    -2.16458   1.95289  -0.05752
N    -1.21280  -0.32705  -0.55489
C    -1.64582  -0.49579  -1.93358
H     1.90693   3.27411  -0.34536
H     1.06035   2.59393   1.05681
H     0.17563   3.59295  -0.12174
H     0.11971   1.76973  -1.78200
H     1.42675  -0.21700  -1.63357
H     2.44057   0.72569   1.13502
H     3.50416   0.88984  -0.27080
H     2.94302  -0.72418   0.22474
H    -1.82454   2.82987   0.51148
H    -3.11021   1.60454   0.35356
H    -2.28698   2.23451  -1.10829
H    -2.52987   0.11157  -2.12971
H    -1.87904  -1.54999  -2.11968
H    -0.82775  -0.18764  -2.61741
28

C     0.96874   2.84423  -0.01341
C     0.80645   1.65089  -0.91957
C     1.52442   0.55258  -0.84043
C     2.65015   0.32811   0.13072
C    -0.33740  -1.19851   0.09492
C     0.11418  -2.41384  -0.41825
N     0.50500  -3.44640  -0.80548
C     0.02713  -0.61634   1.32464
O     0.69830  -0.95779   2.28692
O    -0.63885   0.64353   1.31228
C    -1.27851   0.78888   0.15037
C    -2.16805   1.95341  -0.05748
N    -1.20952  -0.32518  -0.55520
C    -1.64732  -0.49587  -1.93292
H     1.90745   3.27847  -0.34212
H     1.05968   2.59292   1.05662
H     0.17483   3.59239  -0.12159
H     0.11808   1.76975  -1.78195
H     1.42487  -0.21851  -1.63196
H     2.44027   0.72591   1.13489
H     3.50655   0.88828  -0.26900
H     2.94134  -0.72479   0.22556
H    -1.82346   2.82923   0.51149
H    -3.11308   1.60816   0.35272
H    -2.28587   2.23397  -1.10872
H    -2.53007   0.11188  -2.12930
H    -1.87954  -1.55007  -2.11878
H    -0.82788  -0.18799  -2.61681
28

C     0.97118   2.84745  -0.01339
C     0.83284   1.66017  -0.93362
C     1.53282   0.56368  -0.84774
C     2.65219   0.32811   0.13107
C    -0.34708  -1.20646   0.10220
C     0.11187  -2.41523  -0.41772
N     0.50592  -3.44653  -0.80633
C     0.02630  -0.62077   1.32438
O     0.69959  -0.95680   2.28810
O    -0.64103   0.64289   1.31004
C    -1.30188   0.77580   0.16326
C    -2.17152   1.95394  -0.05744
N    -1.20623  -0.32331  -0.55550
C    -1.64882  -0.49594  -1.93226
H     1.90797   3.28284  -0.33887
H     1.05901   2.59191   1.05643
H     0.17403   3.59183  -0.12144
H     0.11646   1.76977  -1.78191
H     1.42299  -0.22001  -1.63035
H     2.43997   0.72613   1.13476
H     3.50894   0.88673  -0.26721
H     2.93965  -0.72539   0.22639
H    -1.82237   2.82859   0.51149
H    -3.11596   1.61178   0.35189
H    -2.28476   2.23342  -1.10915
H    -2.53026   0.11220  -2.12888
H    -1.88004  -1.55015  -2.11789
H    -0.82801  -0.18834  -2.61621
