8

C -4.329273696 1.088400120 -0.190957600
C -3.088972118 2.103586865 2.198670211
H -3.586830746 0.964611078 3.845319220
H -3.674741032 4.043957423 2.584227007
H -1.032025451 2.097089892 2.037469524
H -3.745441960 -0.852728312 -0.575482813
H -6.386383522 1.096973014 -0.030540809
H -3.829898148 2.226056046 -1.838038808

