10

C 2.155132546 -1.603767911 -2.207436121
H 2.737568852 -2.663557918 -3.856847627
H 0.656339545 -0.249634786 -2.528675635
C 2.216284159 -2.881770433 0.338251773
H 0.770109713 -2.347334096 1.680265536
H 2.832489569 -4.827633347 0.450250077
C 4.109941859 -0.906339502 -0.284330271
O 3.879395291 1.375373438 1.018410050
H 4.322062199 2.723369998 -0.109154606
H 6.044020234 -1.509621793 -0.623136679

