18

C -3.621006650 1.917767147 -0.933002706
C -2.371498723 0.686640434 1.332184371
C 0.120151092 -2.936126061 -1.068419479
C 2.423146374 -2.162776318 0.166338796
C 2.699070048 0.645011752 0.645042139
O 4.547000949 1.319964873 2.315731072
H -3.969871957 0.556670835 -2.438945486
H -5.433242325 2.767236173 -0.412173286
H -2.455335478 3.429666079 -1.722601335
H -3.297506722 -1.047646683 1.902163376
H -2.408140116 1.965038173 2.961996525
H -0.799940041 -4.674494421 -0.512686704
H -0.279769021 -2.271862384 -2.964043363
H 2.823807543 -3.192581663 1.906458648
H 4.023520148 -2.449315661 -1.146234640
H 0.007451738 0.715098085 1.232250079
H 2.646898187 1.821987077 -1.059437989
H 5.395401297 2.822700693 1.766082762

