16

C 3.829774220 1.690130266 0.860776920
C 0.099017567 -2.918614385 0.070598486
C 1.113970987 1.789626670 -0.082759932
C -0.563294099 -0.290943444 1.034494114
C -3.259241828 -0.482820357 -0.073396377
C -2.238994585 -2.793049189 -1.521335279
H 3.909004030 1.929246232 2.909459021
H 4.958321288 3.190397669 0.007511794
H 4.705313397 -0.120165417 0.410011742
H 0.252443694 3.607063155 0.395464101
H 1.076020373 1.663202367 -2.148229320
H -0.411180273 -0.199186431 3.098686576
H -4.673259919 -0.980038065 1.337742301
H -3.959470716 1.115763978 -1.175314464
H -1.487056025 -2.216086324 -3.376906192
H -3.332865803 -4.511110646 -1.844156513

