16

C 3.519507098 0.427197875 0.227962727
C 0.480126855 -1.374594890 1.139208525
C 0.468080588 2.042375083 0.404218012
C -1.589869542 0.566954744 1.591444137
C -3.317897207 -0.662376540 -0.357491925
C -0.998086159 -2.186226100 -1.274038273
H 4.491405527 0.391131488 2.030807276
H 4.241699876 2.029646662 -0.878872541
H 4.015265900 -1.246305446 -0.850926099
H 1.197516195 3.516299685 1.619839918
H 0.165721366 2.621038966 -1.537039603
H -2.188516902 1.143629804 3.468643627
H -4.723669535 -1.877082458 0.529595028
H -4.277884617 0.580219468 -1.699472353
H -0.220842825 -1.583015127 -3.086466606
H -1.248565048 -4.230874297 -1.342444620

