15

C 4.275428577 -0.746853345 -0.068793779
C 1.527797840 -0.164546598 -0.026591924
C -0.536927203 -1.435363814 -0.697341368
C -2.794759467 0.090580507 -0.220543775
N -5.203406048 -0.801052296 -0.936175576
C -2.301714255 2.399435092 0.764923983
N 0.601557859 2.286353220 0.885049923
H 5.117064840 -0.667480180 1.818256380
H 4.568035679 -2.648239458 -0.801575429
H 5.330864523 0.557902256 -1.276238519
H -0.529006360 -3.319971313 -1.493855373
H -6.528227423 0.495283479 -0.476169957
H -5.648009473 -2.464023361 -0.108698275
H 1.272140572 3.749420060 -0.169380782
H 1.105787075 2.638949413 2.707511908

