11

O 0.638014984 2.753269094 -1.140630790
C 0.017309381 0.719081873 0.446553659
C -2.561041145 -0.284951519 -0.279167559
N 2.427879326 -3.586635348 0.375481627
C 2.004506483 -1.275038297 0.261315108
O 4.448345831 -1.100295020 -0.053154821
H 2.334899490 3.302307665 -0.796751393
H 0.009233353 1.304451866 2.441761121
H -3.968006476 1.192772793 -0.012147103
H -2.569322359 -0.863214157 -2.255643469
H -3.063981473 -1.901584704 0.896549115

