14

C 3.171375421 -0.428491581 0.508410972
N 0.413624577 -0.421951769 0.685833238
C -1.005493999 1.358021595 -0.900496299
C -2.500064369 -2.209523740 -0.399301473
C -0.976128619 3.921238003 -0.089722968
N -1.098706271 5.953666513 0.706555181
H 3.734548275 -1.183755549 -1.323388603
H 3.998807878 -1.593763550 1.993124530
H 3.870008454 1.515543477 0.662892756
H -0.161214936 -0.283122321 2.498001072
H -0.617327586 1.097342512 -2.890161931
H -3.299196401 -2.075704920 -2.276252671
H -1.585758840 -4.030575270 -0.108572722
H -3.886795364 -1.783990997 1.042603685

