13

O -5.144531896 1.086110226 1.679192455
C -3.235932358 0.819956720 0.496662355
C -0.819808811 -0.170819639 1.676713286
N 1.166584118 -0.287543165 -0.236615046
C 1.236178404 -2.403046964 -1.578614466
C 2.469850464 1.829443483 -0.555450941
H -3.092653059 1.276239577 -1.543582099
H -1.143256999 -2.049041715 2.456748161
H -0.234874287 1.072966481 3.210076010
H 2.555919080 -2.551389898 -3.122816829
H 0.033204491 -3.946515547 -1.030391594
H 3.856253572 1.922390324 -2.044646231
H 2.170075650 3.362930212 0.743714037

