13

O -5.121002254 -0.802023219 2.670925280
C -3.020957492 -0.995784945 1.853425809
C -1.517955334 1.227405124 0.835280603
N 0.737540000 0.482971365 -0.473475302
C 1.201482390 0.019329177 -2.937666736
C 2.982544368 -0.355046469 0.448551610
H -2.015382688 -2.837057982 1.803575476
H -0.984804408 2.404767616 2.454069210
H -2.724261212 2.362347573 -0.394432859
H 2.684940036 1.060717825 -3.870653002
H -0.059333961 -1.157236777 -4.065472181
H 3.507297540 -2.309334293 0.193503099
H 4.146897627 0.860627027 1.633360001

