9

C -1.800247555 -0.881028624 -0.306735885
H -3.571151782 -1.572126204 0.453197558
H -0.799208925 -2.156332485 -1.556822862
C -0.308895785 0.788635378 1.539943016
H -0.728853439 0.842297364 3.532659800
C 2.089703538 1.604613488 0.226501836
O 0.827757188 2.332069474 -1.846283286
C -1.621247613 1.853482330 -0.723859327
H -3.098196929 3.241426623 -0.963794584

