13

C -1.054588158 2.792507348 -0.504771869
C 0.052620785 0.679823040 1.122854949
C -0.730384930 -2.029679752 0.355197836
C 2.792200173 0.131345925 0.455591898
C 1.870161204 -2.147960582 -0.955382242
H -0.076835452 4.574171469 -0.162492561
H -0.901144815 2.355929288 -2.516351219
H -3.053143402 3.040018385 -0.062545021
H -0.165879441 1.203234714 3.112233928
H -2.419479323 -2.257174072 -0.807743155
H -0.860787333 -3.302880668 1.967352313
H 1.725965841 -1.481584021 -2.921661833
H 3.043683471 -3.843043026 -0.992127191

