14

C 3.273631827 -0.923480925 0.605843096
C 2.089892756 0.449790893 -1.502975777
C -0.660740812 0.258687330 -1.648112470
C -2.286271791 -1.386787006 0.124045402
O -2.496105922 0.604851330 1.953239442
C -1.396588449 2.396692703 0.275524677
H 2.116690112 -1.361363292 2.268727631
H 5.096667004 -0.143536567 1.159322902
H 3.699535580 -2.739028628 -0.335691610
H 0.155752456 3.452024525 1.142864370
H -1.404502697 0.544258264 -3.543338850
H -1.417357181 -3.080949172 0.920927243
H -4.130567728 -1.874278502 -0.672410740
H -2.770065339 3.725062057 -0.507034703

