14

C -1.924095915 -2.000731812 -2.487924901
C -1.548071143 -0.294167713 -0.234400665
H -3.105169150 -0.265256359 1.102912537
C 1.089945954 0.065153562 1.097132923
C 3.453971547 -1.272229163 0.227513237
H 5.127252145 -0.308156127 0.948219802
H 3.494777500 -3.221359792 0.903296609
H 3.601710676 -1.303011138 -1.827866885
H 0.910497013 0.281654797 3.130770214
C -0.083824264 2.047640975 -0.439644783
O 0.157953835 4.044531994 -1.458559598
H -0.368431626 -1.845339198 -3.830575029
H -3.650619944 -1.487581199 -3.490628568
H -2.078941491 -3.974836948 -1.908348790

