16

C -2.003073938 -1.578847790 -2.299964048
C -1.761189032 -0.495199311 0.320740078
C 0.819479942 -0.150142218 1.650587557
C 3.283360780 -0.874638685 0.424112614
C -0.569762499 2.039761724 0.564588429
O 0.071705563 3.725246211 -1.120879788
H -0.726030169 -0.630588380 -3.608229116
H -3.920497817 -1.315892816 -3.009899420
H -1.583832944 -3.599138985 -2.315243107
H -3.266783781 -0.975116784 1.624218999
H 0.713728676 -0.442770787 3.675536153
H 4.871114207 -0.144069318 1.517115861
H 3.480023671 -2.924692292 0.296215742
H 3.422651907 -0.080497287 -1.471093301
H -1.760053118 3.212629163 2.574345799
H -1.221891054 4.262815525 1.238698599

