15

C -0.957761596 2.585716603 -0.886901874
C -0.009479206 -0.042180407 -0.182634925
C -1.799297041 -1.505991535 1.509632697
N 0.709100415 -1.459998228 -2.455622168
C 3.048626371 -1.880334488 -1.245943431
C 2.539357123 0.530540591 1.308177272
N 3.603460676 1.406966824 3.008135625
H -1.401513963 3.647855577 0.819655006
H -2.659596617 2.374540766 -2.034791688
H 0.457686622 3.631881986 -1.956173582
H -3.648299587 -1.567370104 0.600314665
H -1.147369837 -3.437105666 1.787364045
H -1.969768026 -0.591087869 3.347010157
H 0.965904237 -0.202989259 -3.880451761
H 2.729716681 -3.456125476 0.084504981

