13

O 4.977713242 -0.075492820 2.041478653
C 3.730100823 -0.692276996 0.322483615
N 1.676135143 -0.527693265 -1.014684890
C -0.326055764 1.188426234 -0.338203907
C -2.147446671 0.461282109 1.707852325
C -2.955650560 0.417853368 -1.009023611
H 4.947602553 -2.536201564 -1.371671729
H 3.357708237 -2.110989924 -2.206711449
H 0.153330790 3.172109126 -0.520517521
H -1.835328242 -1.336661662 2.629323658
H -2.854640636 1.943183189 2.925349256
H -4.238556940 1.862532474 -1.675705854
H -3.172470706 -1.410327438 -1.898890200

