11

C -2.835029115 -1.496287886 1.944236371
C -0.712255275 0.392884889 1.985423273
C 3.406571736 1.047942520 -3.296956358
O 3.248124569 -0.778808311 -4.610449259
C 0.408330264 1.216349697 -0.043629260
N 1.377978501 2.090172020 -1.941210409
H -4.533354783 -0.700611784 2.803790147
H -3.290598771 -2.058808103 0.017469082
H -2.324725280 -3.190956102 3.003842299
H -0.038000805 1.128061428 3.774797060
H 5.131434620 2.202863305 -3.136114133

