12

C 2.712095193 -0.333910184 0.418170502
C -0.022011379 0.304962925 -0.012430014
C -1.977540602 -1.615576261 -0.556669210
N -1.811870750 -0.422697454 1.931080003
C -0.620012924 4.690823960 -2.037679529
N -0.393153968 2.693743288 -1.139875315
H 3.736985587 -0.374189489 -1.368978794
H 2.840012890 -2.178586183 1.320062496
H 3.583589828 1.066438857 1.653591504
H -3.500048040 -1.073371676 -1.813255428
H -1.442120077 -3.591296792 -0.613662367
H -3.166194793 0.911328644 2.148889137

