14

C -2.803581011 -2.069021090 0.300805074
C -0.503470566 -0.625732388 1.180931864
C 1.868674821 -0.740361739 -0.609168636
C 2.201358857 2.162037058 -0.774345610
O 2.021361801 3.070783032 1.660092388
C -0.514551221 2.202759446 0.644559749
N -0.922745557 3.224056601 -1.460427554
H -4.398669844 -1.762557062 1.570882764
H -2.408097125 -4.092993850 0.255785372
H -3.355301274 -1.460909321 -1.589703945
H -0.006346173 -1.037141129 3.131716665
H 3.531000866 -1.683154795 0.158370312
H 1.351253106 -1.550496437 -2.430688139
H 3.366057671 3.133725633 -2.151965214

