10

C -1.191490784 0.345889555 -2.526395548
C -1.990839360 -0.135924731 -0.193910108
C -3.880984645 1.396398569 1.229053116
H -3.042579833 2.114400615 2.972138874
H -5.491814878 0.219102500 1.754212277
H -4.543668133 2.981163054 0.099451051
O -1.174252589 -2.124377896 1.218110166
H 0.043304132 -3.076070107 0.266587671
H 0.187870297 -0.842564137 -3.465275889
H -1.911047016 1.956774439 -3.551372208

