9

C -2.019422545 1.788435066 -0.545729038
H -1.067241858 3.243312929 0.530143068
H -1.593955791 1.806820608 -2.545826317
C -4.631841204 1.037389855 0.249674055
H -5.977348164 0.548489833 -1.210203060
H -5.452362858 1.979978027 1.868051438
C -2.455279844 -0.718384016 0.697527770
H -1.800701675 -0.963619728 2.619195728
H -2.325018093 -2.401236417 -0.456615620

