16

C 4.337519365 0.290352545 0.879648822
O 2.545101173 -1.693052368 1.010406739
C 0.894120269 -2.092430130 -0.906070727
C -1.326267828 1.305167996 -0.871841191
C -3.802431848 0.935201082 0.395051555
C -2.479459003 -1.585320008 0.127462537
H 3.728837144 1.919042259 2.001999176
H 4.646482784 0.881653594 -1.078664591
H 6.109468857 -0.412170981 1.661374190
H 1.492813586 -1.129486130 -2.642991405
H 0.102702306 2.349252187 0.142391846
H -1.379737798 1.663878927 -2.881861366
H -5.472337206 1.233549360 -0.752510675
H -3.975706600 1.676777404 2.295887738
H -2.091674655 -2.486461913 1.920645030
H -3.350261015 -2.832772536 -1.232727481

