13

C -2.269553536 -2.003667180 -0.693352987
C -0.482354048 -0.058379460 0.350805129
O -0.155883262 0.088197241 2.897070978
C -0.615667820 2.693300695 0.118208964
O 1.512562131 3.375437421 -0.717933581
C 2.269929005 0.158046564 -0.769352235
O 3.956844979 -0.340147717 0.910901830
H -4.138536439 -1.749034219 0.133168641
H -1.595158016 -3.881143911 -0.167194577
H -2.418049273 -1.896755433 -2.749749177
H 2.834334697 -0.318518497 2.503771823
H -2.027399495 4.022892891 0.799626725
H 2.792884840 -0.143322102 -2.730452994

