18

C 4.421537269 -0.802885236 -2.159711504
C 2.704428688 -1.481675257 0.005824287
C 2.006045193 0.701836516 1.597505094
N 0.177202472 -0.138329899 -0.341306232
C -2.197927964 -1.392914745 0.295192738
C -4.332683499 0.454198112 0.801001652
O -3.998367818 1.884748605 3.025092024
H 4.132920891 -2.051631963 -3.777587335
H 6.378616105 -1.051571550 -1.554615737
H 4.241389262 1.177766214 -2.832185058
H 0.032716394 1.097362052 -1.806929834
H 2.699573641 2.615587163 1.215969370
H 1.379078152 0.420209158 3.532514555
H -2.686909150 -2.641150415 -1.276147604
H -1.822759390 -2.568022171 1.941902370
H -4.617123904 1.691414523 -0.843759238
H -6.077051229 -0.615137563 1.056535861
H -2.627828450 3.046042737 2.789553895

