18

C 4.128677341 0.197121981 -2.534116478
C 2.484948752 -1.581019029 -1.047741699
C 2.387905684 -0.865792405 1.666893777
N 0.139617936 0.400711511 0.662920743
C -2.201436562 -0.801571707 1.585085549
C -4.452137396 0.461013636 0.343020384
O -4.525572513 3.070593832 0.856094028
H 3.562412498 0.340553290 -4.508859548
H 5.996342160 -0.701506967 -2.501504832
H 4.338532939 2.090377018 -1.720801938
H 0.145294012 -0.617818385 -1.340476017
H 3.789797271 0.473211100 2.357632725
H 1.985920138 -2.351963453 3.031364686
H -2.202384241 -2.844790439 1.227416443
H -2.260591604 -0.493544307 3.626594533
H -4.410344043 0.104303641 -1.704878331
H -6.200297258 -0.351015002 1.076635763
H -2.860333058 3.722845333 0.529041017

