11

C 3.008585380 0.890753287 0.953581408
C 3.995103637 -1.038817770 -0.471725813
C 1.281435379 -1.513781931 -1.296829013
C 0.709671490 1.126908071 -0.566792889
C -2.418234107 0.933594909 0.821549362
C -3.579425495 -1.028420685 0.338963350
O -0.138416297 -3.218345679 -1.739003780
H 3.721086829 1.985003187 2.524415399
H 0.456626920 2.676960082 -1.901334844
H -2.666554778 2.706141857 1.787278175
H -4.621849410 -2.709329258 -0.043545696

