8

C 4.036084465 -2.089961599 -0.453931944
O 6.188758912 -2.814475962 -0.421812004
C 3.211217821 0.226758215 0.963261700
O 5.198460616 1.363105147 2.253650602
H 6.680855387 0.348464515 1.925362051
H 2.357426840 1.532775795 -0.409402608
H 1.690712566 -0.338051236 2.262627198
H 2.559765183 -3.102777342 -1.533011292

