15

C -4.020002536 0.511464202 0.602098396
C -2.087283971 -0.494481725 -1.209707234
O -0.623837957 1.046878113 -2.422201039
C 1.667657850 -1.004071243 -1.017775367
O 2.569064903 -2.576451918 -2.346009228
C 2.977453351 1.019773393 0.544062035
O 4.573187091 -0.126989048 2.317548082
H -3.244584942 2.048412266 1.729641359
H -5.572576311 1.273208494 -0.531503085
H -4.771769169 -0.968272007 1.821664879
H -2.564274995 -2.300789726 -2.123945111
H -0.208923226 -1.703937342 0.386788633
H 3.998703528 2.224643646 -0.790769049
H 1.609522675 2.157568252 1.567108037
H 5.801935035 -1.125427433 1.429189172

