14

C 1.989027566 -0.402112876 2.319300519
C 0.461179932 0.267602831 0.020042492
C 1.782960945 0.931041908 -2.431510416
H 3.812857259 1.188304970 -2.339325021
H 1.090412830 0.145991189 -4.190665120
C 0.150985489 2.879982676 -1.080961459
H 1.079331003 4.562662375 -0.389325534
C -2.311358151 2.999238832 -2.338994376
N -3.259619074 0.627298971 -1.890982169
H -4.927442483 0.124212057 -2.663426279
C -1.839594487 -1.145620574 -0.663209664
H 0.894481074 -0.088015922 4.036645543
H 3.695950354 0.750142867 2.429313439
H 2.539118319 -2.387319813 2.264058722

