16

C 2.766759338 -1.228463786 1.830475009
C 0.878606978 -0.293295170 -0.052020154
C 1.436870077 1.626162035 -2.028418511
C -0.464613621 2.218106649 -0.012597689
C -3.117746014 1.297633677 -0.435243422
N -2.985510822 -0.672852350 -2.150016944
C -1.321500502 -2.065311331 -0.698058481
H 1.841486349 -1.748423743 3.601050141
H 4.194099244 0.201657153 2.238390364
H 3.713857418 -2.912149027 1.100332928
H 3.225671372 2.588271645 -1.791620558
H 0.821798314 1.343531496 -3.959533020
H -0.142843056 3.685899146 1.366743172
H -3.496591485 -0.515165873 2.077775511
H -4.624480778 -1.533764688 -2.606244074
H -2.749779185 -1.981659619 1.883436398

