16

N 2.085000010 0.452617224 3.250264230
C 1.698282468 0.119374018 0.600114392
O 4.111135523 0.051081622 -0.466418574
C 0.070992381 -2.214711548 0.025446655
C -2.578264600 -1.136224213 -0.265106862
C -2.010292088 1.387155125 -1.529563808
O 0.356032528 2.183186022 -0.544261344
H 3.106555982 2.041242948 3.546544846
H 0.415726878 0.616842380 4.163804477
H 0.726470003 -3.026636875 -1.754575558
H 0.275529061 -3.637669405 1.494415129
H -3.834268499 -2.320454575 -1.388241755
H -3.465633973 -0.843067258 1.577235173
H -1.874573469 1.167254177 -3.587583745
H -3.410544375 2.846829378 -1.130154450
H 3.962350772 0.738536471 -2.138286413

