10

O 5.045425776 0.707666453 -0.203940207
C 3.061495840 -0.247256094 0.201265319
O 0.823492095 1.126964649 -1.320503842
C -1.428859963 1.439922911 0.098685089
C -1.759711928 -1.248666772 -0.276948340
O 2.089873368 -2.010063733 1.362705810
H -1.128742334 2.042293144 2.043010938
H -2.723502997 2.681293753 -0.909241970
H -1.833057301 -2.646345442 1.199111464
H -2.146414427 -1.845810760 -2.194140462

