14

C -3.283093894 -1.240115667 -0.105276340
C -0.992525262 0.235286776 -1.077621274
C -2.261533273 3.099165792 1.260037481
N -0.725066069 2.706705089 2.988502618
C 1.286571012 0.272541139 0.140730777
O 1.429789708 1.261910294 2.461958477
C 3.793974587 -0.530487036 -0.826677361
H -3.202515726 -1.575292894 1.920929641
H -5.037619941 -0.249408832 -0.520585173
H -3.296654285 -3.066360033 -1.069646100
H -0.835437904 0.157289408 -3.122997053
H 5.245548887 0.877938090 -0.440251102
H 3.690882959 -0.918881690 -2.842134013
H 4.335331062 -2.281442218 0.128938017

