16

C 3.399093749 -0.404624775 0.461707676
C 0.798587357 0.197239956 -0.527017045
C -0.864925550 3.310194948 -0.427402967
C -1.306957246 1.173084171 1.269359538
C -3.158383856 -0.833232537 0.298939990
C -1.084151033 -1.799776484 -1.517491595
H 3.325621368 -2.011821197 1.754785563
H 4.182114865 1.205877439 1.484288351
H 4.698065598 -0.874655863 -1.070459722
H 0.657233065 4.436679607 0.447138171
H 0.872115258 1.762648071 -2.075451923
H -0.849398804 1.305013851 3.267369048
H -3.711592184 -2.224580945 1.713023995
H -4.838049291 -0.050961170 -0.596271086
H -1.498859519 -1.674961717 -3.529884246
H -0.444495256 -3.709931795 -1.085243389

