13

C -1.237270174 0.444711800 -4.023799601
C 0.068970714 -1.677434273 4.135499781
O 0.150189215 -1.826939464 1.730397570
C 0.816104948 -0.087443864 0.047434356
N 0.667839530 -0.791527302 -2.465979303
C 1.472554777 2.300349609 0.988130553
N 2.004487737 4.240113923 1.846356041
H -1.191774338 -0.374501558 -5.914296186
H -3.104122959 0.094708992 -3.224323506
H -0.966222108 2.493279289 -4.183865016
H -0.531399036 -3.377934845 5.081828175
H 0.586627435 0.061701769 5.082582100
H 2.362498808 -0.901904145 -3.332276851

