13

C -2.095480336 -0.239754958 -2.290155897
C -0.928990345 -1.061840870 2.172802412
O 1.259530090 -1.994656909 1.475368164
C 2.503933338 -0.318365429 -0.064626158
N 1.606096053 -0.710345064 -2.321181080
C 3.260194193 2.051512910 1.008927745
N 4.080872448 3.933140236 1.740218666
H -1.760294889 0.225400806 -4.260372713
H -3.123760086 -2.007402715 -2.165073999
H -3.073951346 1.332026522 -1.398118257
H -2.084719518 -2.328239377 3.295276165
H -1.105928124 0.973072440 2.380528496
H 2.236029530 0.526674438 -3.642959996

