14

C 2.970593078 -1.276165840 0.380807744
C 1.017601852 0.737950486 -0.207158335
C -0.827727217 0.194535305 -2.451679708
C -2.943033294 0.289157577 -0.521844902
C -1.341157963 0.750850588 1.369428133
O -1.471187447 1.127809716 3.877234691
H 3.882397215 -0.918988025 2.196354068
H 2.084507812 -3.139526525 0.469374011
H 4.435262048 -1.328500142 -1.072055425
H 1.904075287 2.600436171 -0.343697340
H -0.861981451 1.657554278 -3.908078196
H -0.514130965 -1.639491974 -3.348868722
H -4.970743875 0.074310551 -0.669693616
H -3.201036411 1.016750247 4.417463152

