14

C 3.054768812 -1.137876023 0.496414745
C 1.052384983 0.756229599 -0.264362065
C -1.047597437 -0.032469860 -2.203607064
C -3.019104446 0.656992956 -0.221101056
C -1.123274638 1.164156179 1.540359681
O -1.411170275 1.053078493 3.957405453
H 4.082782413 -0.479387197 2.157157974
H 2.198232569 -2.956366332 0.966812723
H 4.409677461 -1.440635886 -1.028367301
H 1.879280285 2.569125242 -0.806422444
H -1.092388690 1.099823874 -3.925601305
H -0.958260389 -2.031078243 -2.706401562
H -4.992729232 1.172433539 -0.334353325
H -2.940157905 -0.328237415 2.464741476

