9

C 3.347711662 -0.372522353 1.008767987
C 1.256559497 -1.872458865 2.176375638
C -0.026216756 -3.685865585 1.025031462
H 0.377190865 -4.214669007 -0.915235388
H -1.527262311 -4.704565217 1.973340836
H 0.783837572 -1.407314477 4.121985858
H 2.892278954 1.642603767 0.999129212
H 5.098322045 -0.583083329 2.084932320
H 3.705864670 -0.963056306 -0.933510174

