15

C 3.070464518 -0.134905639 0.010742356
C 0.520277904 -0.039187629 1.240973225
C -0.795843361 -2.361857322 1.602534770
C -2.446787831 0.148472777 -0.773752047
C -1.181800117 2.491842813 -1.208666486
H 3.868487962 1.735020332 -0.299966054
H 4.296248219 -1.235204798 1.265313370
H 2.982078399 -1.137370729 -1.789719796
H 0.346174091 1.306757483 2.771011543
H -0.323349903 -3.986485598 0.460710259
H -2.065442611 -2.609339956 3.177971453
H -4.176201742 0.174184334 0.316119830
H -2.481343476 -1.197760442 -2.312108505
H -1.632654661 4.134341077 -0.088253782
H 0.016576470 2.721249952 -2.839958579

