10

N 2.642155730 -0.361010142 0.169604847
C 0.032842438 0.186015739 0.071438847
C -0.888939792 2.756518005 0.175924942
N -1.211448087 1.653414947 2.236759039
C -1.583661376 -1.831174945 -1.020355864
O -0.775161121 -3.826819482 -1.735930499
H 2.948333843 -2.247078456 0.134663509
H 3.502912600 0.446315724 1.667019482
H -1.036757685 4.640461266 -0.610336336
H -3.623433834 -1.368386629 -1.080546891

