17

C -5.228985778 1.451045404 1.359815115
C -3.121524011 1.879868860 -0.395737601
C -0.957448109 0.255672896 0.137525896
C 0.937511612 -0.131533593 -1.999735813
C 3.212956444 -1.718838172 -1.249439708
C 4.952766778 -0.531596305 0.655956706
O 4.682053268 1.531599043 1.563428003
H -6.375709215 3.128600109 1.700111062
H -4.822812070 0.432508610 3.126386900
H -6.427812952 0.206632878 0.188584274
H -0.018834371 -1.048845016 -3.582766134
H -0.081727934 1.480951586 1.600664111
H -1.406700600 -1.522556250 1.134776229
H 1.552200573 1.717485941 -2.674441493
H 4.383574277 -2.175895855 -2.897156979
H 2.642495616 -3.560133715 -0.482055113
H 6.598300433 -1.713449505 1.204447559

