15

C -3.771645809 0.738622378 0.658206047
C -1.323491896 0.403148691 -0.660010074
O -0.329120106 2.483704878 -1.504069627
C 2.345198894 2.392439440 -1.949194785
H 2.932871802 4.353358445 -2.152014309
H 2.667372538 1.405944331 -3.744119756
C 3.548322322 0.940756177 0.213026180
H 5.318945019 1.670882101 0.943939912
C 2.489131208 -1.169306590 1.064520161
C 0.072382369 -1.900355758 -0.588062021
H 0.906967250 -2.393863084 -2.411037331
H -1.010312404 -3.474482238 0.157374691
H -5.098242147 -0.756837127 0.162149840
H -4.580643346 2.587132083 0.265554690
H -3.404784716 0.596740531 2.692462035

