13

C -1.002944570 2.950861182 0.217997313
C -0.927060689 0.200661683 -0.627304584
C 1.398109791 -1.176389113 0.127200224
O 3.538053626 0.176643283 0.205111988
C -3.025869344 -1.723407039 0.119597403
N -2.516577722 -3.922979235 -0.350510578
H -2.829737466 3.757952306 -0.276509508
H -0.752516703 3.113118245 2.256697313
H 0.472406058 4.041779853 -0.713026661
H -1.269639406 0.107529857 -2.655650907
H -0.571016313 -4.106547703 -1.067019286
H 1.276227842 -2.661165619 1.524600858
H 4.664893648 -0.448375034 1.484692450

