13

C -2.214051750 3.064970895 -0.942677329
C -0.897516957 0.554594121 -0.899999150
C -2.111837844 -1.643874060 -0.868545944
H -4.155874260 -1.633548426 -0.874034880
H -1.133744250 -3.430328333 -0.838079099
N 1.751451992 0.809839391 -0.897312300
C 3.549452133 -1.034485932 -0.861285616
O 3.187489871 -3.281617867 -0.824821290
H 5.470061655 -0.211898864 -0.869075766
H 2.419506081 2.588655694 -0.924401372
H -1.708860853 4.195390134 0.712497651
H -4.253451119 2.809426028 -0.946852831
H -1.695780263 4.145544431 -2.626819166

