17

C -3.924965016 3.054694206 -1.148681722
C -2.736329702 1.011884184 0.512411352
C -1.523629482 -1.038021628 -1.020719881
C 0.910749443 -1.610869880 -1.196736853
C 3.069583717 -0.305409184 0.122768533
C 4.562244235 -2.042879073 1.672111292
C 5.776096697 -3.482990786 2.925659095
H -4.894608529 4.471600631 -0.005936650
H -2.487976774 4.012833501 -2.277157680
H -5.303977292 2.243412992 -2.452926908
H -1.381713545 1.870358227 1.809481229
H -4.205196093 0.161647494 1.694888955
H -2.826044337 -2.164256427 -2.144280303
H 1.462208772 -3.172315767 -2.408218029
H 2.400263756 1.244100060 1.305798919
H 4.322267971 0.537146922 -1.292176545
H 6.857218064 -4.755348167 4.046236489

