10

C -1.784953661 -1.747498666 -1.608408284
C -2.259991389 -4.271200617 -0.290968010
H -1.473859369 -4.270886696 1.615581420
H -1.387450432 -5.817605325 -1.334930294
H -4.279543777 -4.673343351 -0.145027901
C -3.124131153 0.385233993 -0.293352429
O -2.138544417 2.295930314 0.426219602
H -5.184115063 0.082174948 0.005255971
H 0.223625012 -1.298235800 -1.715078279
H -2.525277322 -1.825464552 -3.541490301

