14

C -2.457537746 0.872306650 -1.447489167
C -1.508955306 0.217825027 2.044056448
C -0.103142669 -2.162948491 1.840310410
N 0.245654929 -0.775362509 -0.470518486
C 2.644260526 0.486057798 -0.829288981
H -3.276516551 2.649685816 -0.800903027
H -1.555484369 1.266326036 -3.281487268
H -3.930877270 -0.524395730 -1.701803368
H -0.324125617 1.719054792 2.840166336
H -1.101503746 -3.952431958 1.667714693
H 1.656048431 -2.301694961 2.889158506
H 3.418000724 1.258563306 0.930429580
H 3.996965150 -0.851452653 -1.632554676
H 2.402210495 2.035076016 -2.172444875

