14

C -3.728981973 -0.300864959 -0.012323358
C -0.919190075 -0.305665374 0.209292875
N 0.342166624 -1.987643644 2.012704096
C 0.648222586 0.494953816 2.447000614
C 3.293318068 0.924510466 -0.771624026
C 0.760713277 0.564234483 -1.871359139
O 0.033841329 1.357293106 -3.893139930
H -4.355610715 1.500802196 -0.789625368
H -4.602056097 -0.593195745 1.828178784
H -4.346422696 -1.787972026 -1.299702474
H 1.745840337 -3.196080963 1.532402876
H 2.476388652 1.664638030 2.185324493
H 4.410932920 -0.679127507 -0.159822151
H 4.388894045 2.439250753 -1.623990418

