28

C     3.06337  -0.27675  -0.10414
N     2.34583   0.47643  -1.11643
C     1.08599   0.96588  -1.04356
O     0.53171   1.49084  -2.03176
N     0.46854   0.83965   0.20432
N    -0.78189   1.12951   0.11704
N    -1.70422   0.95082   0.96244
C    -1.28855   0.59291   2.31843
C    -1.63077  -1.46306   0.17501
C    -2.40288  -1.07577  -1.06888
C    -0.34923  -1.64755   0.23043
C     0.43685  -2.12491   1.41517
H     4.14610  -0.13467  -0.24511
H     2.85553  -1.36139  -0.15605
H     2.79129   0.07830   0.89360
H     2.76985   0.53411  -2.04487
H    -1.12061   1.45133  -0.81282
H    -2.05406  -0.04310   2.82328
H    -1.33006   1.58163   2.77870
H    -0.30723   0.15605   2.46150
H    -2.22782  -1.57697   1.10849
H    -2.59804  -2.03605  -1.53377
H    -3.36182  -0.55758  -0.90028
H    -1.80530  -0.47043  -1.77294
H     0.22609  -1.56087  -0.73428
H    -0.23908  -2.27690   2.25448
H     0.89205  -3.07505   1.13195
H     1.25917  -1.45971   1.75036
28

C     3.06374  -0.27725  -0.10434
N     2.34713   0.47579  -1.11692
C     1.08581   0.96108  -1.04452
O     0.53279   1.49108  -2.03035
N     0.46575   0.82490   0.20095
N    -0.78364   1.13631   0.11869
N    -1.70550   0.92224   0.95727
C    -1.29141   0.59102   2.31768
C    -1.63245  -1.43473   0.18330
C    -2.40188  -1.07378  -1.06664
C    -0.34162  -1.63126   0.23049
C     0.43691  -2.12217   1.41357
H     4.14624  -0.13489  -0.24497
H     2.85561  -1.36155  -0.15599
H     2.79110   0.07821   0.89348
H     2.77063   0.53472  -2.04474
H    -1.12147   1.44832  -0.81305
H    -2.05369  -0.04335   2.82517
H    -1.33230   1.58239   2.77493
H    -0.30741   0.15749   2.46300
H    -2.22659  -1.57833   1.10751
H    -2.59442  -2.03740  -1.52988
H    -3.36287  -0.55921  -0.90153
H    -1.80601  -0.47034  -1.77342
H     0.22400  -1.56405  -0.73546
H    -0.23973  -2.27602   2.25345
H     0.89063  -3.07442   1.13003
H     1.26001  -1.46079   1.75125
28

C     3.06410  -0.27775  -0.10455
N     2.34842   0.47516  -1.11741
C     1.08563   0.95628  -1.04548
O     0.53387   1.49133  -2.02894
N     0.46296   0.81016   0.19757
N    -0.78540   1.14311   0.12034
N    -1.70678   0.89365   0.95210
C    -1.29427   0.58913   2.31693
C    -1.63412  -1.40640   0.19160
C    -2.40089  -1.07179  -1.06441
C    -0.33400  -1.61497   0.23054
C     0.43697  -2.11944   1.41196
H     4.14638  -0.13511  -0.24483
H     2.85570  -1.36171  -0.15594
H     2.79091   0.07813   0.89335
H     2.77140   0.53532  -2.04461
H    -1.12233   1.44531  -0.81329
H    -2.05332  -0.04361   2.82705
H    -1.33455   1.58315   2.77115
H    -0.30759   0.15893   2.46450
H    -2.22536  -1.57969   1.10654
H    -2.59080  -2.03875  -1.52599
H    -3.36393  -0.56084  -0.90278
H    -1.80672  -0.47024  -1.77390
H     0.22190  -1.56724  -0.73663
H    -0.24039  -2.27515   2.25242
H     0.88921  -3.07380   1.12810
H     1.26086  -1.46187   1.75215
28

C     3.06447  -0.27825  -0.10476
N     2.34971   0.47452  -1.11790
C     1.08545   0.95148  -1.04644
O     0.53495   1.49157  -2.02753
N     0.46017   0.79542   0.19420
N    -0.78715   1.14990   0.12199
N    -1.70805   0.86507   0.94692
C    -1.29713   0.58724   2.31618
C    -1.63580  -1.37807   0.19989
C    -2.39989  -1.06980  -1.06217
C    -0.32639  -1.59868   0.23060
C     0.43703  -2.11671   1.41036
H     4.14653  -0.13534  -0.24469
H     2.85579  -1.36187  -0.15589
H     2.79073   0.07804   0.89323
H     2.77218   0.53592  -2.04448
H    -1.12320   1.44229  -0.81352
H    -2.05296  -0.04386   2.82894
H    -1.33679   1.58390   2.76737
H    -0.30777   0.16037   2.46600
H    -2.22413  -1.58105   1.10557
H    -2.58717  -2.04010  -1.52210
H    -3.36498  -0.56247  -0.90403
H    -1.80743  -0.47015  -1.77438
H     0.21981  -1.57042  -0.73780
H    -0.24104  -2.27427   2.25138
H     0.88779  -3.07317   1.12618
H     1.26171  -1.46294   1.75304
28

C     3.06484  -0.27875  -0.10497
N     2.35101   0.47389  -1.11839
C     1.08527   0.94669  -1.04739
O     0.53603   1.49181  -2.02612
N     0.45737   0.78068   0.19082
N    -0.78891   1.15670   0.12364
N    -1.70933   0.83649   0.94175
C    -1.29999   0.58535   2.31543
C    -1.63747  -1.34974   0.20818
C    -2.39889  -1.06781  -1.05993
C    -0.31877  -1.58239   0.23066
C     0.43708  -2.11398   1.40876
H     4.14667  -0.13556  -0.24455
H     2.85587  -1.36203  -0.15583
H     2.79054   0.07796   0.89310
H     2.77295   0.53652  -2.04435
H    -1.12406   1.43928  -0.81376
H    -2.05259  -0.04411   2.83083
H    -1.33904   1.58466   2.76360
H    -0.30795   0.16181   2.46750
H    -2.22290  -1.58241   1.10460
H    -2.58355  -2.04145  -1.51821
H    -3.36603  -0.56411  -0.90528
H    -1.80815  -0.47005  -1.77485
H     0.21771  -1.57361  -0.73897
H    -0.24170  -2.27340   2.25035
H     0.88637  -3.07255   1.12425
H     1.26255  -1.46402   1.75393
28

C     3.06520  -0.27925  -0.10518
N     2.35230   0.47325  -1.11888
C     1.08509   0.94189  -1.04835
O     0.53711   1.49206  -2.02471
N     0.45458   0.76594   0.18745
N    -0.79066   1.16350   0.12529
N    -1.71061   0.80791   0.93658
C    -1.30285   0.58346   2.31469
C    -1.63914  -1.32140   0.21647
C    -2.39789  -1.06582  -1.05770
C    -0.31116  -1.56610   0.23071
C     0.43714  -2.11125   1.40715
H     4.14681  -0.13578  -0.24441
H     2.85596  -1.36219  -0.15578
H     2.79035   0.07787   0.89298
H     2.77373   0.53713  -2.04422
H    -1.12492   1.43627  -0.81399
H    -2.05222  -0.04437   2.83272
H    -1.34128   1.58542   2.75982
H    -0.30813   0.16325   2.46900
H    -2.22167  -1.58377   1.10362
H    -2.57993  -2.04280  -1.51432
H    -3.36709  -0.56574  -0.90653
H    -1.80886  -0.46996  -1.77533
H     0.21562  -1.57679  -0.74015
H    -0.24235  -2.27253   2.24931
H     0.88495  -3.07192   1.12233
H     1.26340  -1.46510   1.75483
28

C     3.06557  -0.27975  -0.10538
N     2.35360   0.47261  -1.11938
C     1.08492   0.93709  -1.04931
O     0.53820   1.49230  -2.02330
N     0.45179   0.75119   0.18408
N    -0.79242   1.17030   0.12694
N    -1.71188   0.77933   0.93141
C    -1.30571   0.58157   2.31394
C    -1.64082  -1.29307   0.22476
C    -2.39690  -1.06383  -1.05546
C    -0.30355  -1.54981   0.23077
C     0.43720  -2.10852   1.40555
H     4.14695  -0.13600  -0.24427
H     2.85605  -1.36236  -0.15573
H     2.79016   0.07779   0.89285
H     2.77450   0.53773  -2.04409
H    -1.12578   1.43326  -0.81422
H    -2.05185  -0.04462   2.83461
H    -1.34353   1.58618   2.75604
H    -0.30831   0.16469   2.47050
H    -2.22045  -1.58512   1.10265
H    -2.57631  -2.04415  -1.51042
H    -3.36814  -0.56737  -0.90779
H    -1.80957  -0.46987  -1.77581
H     0.21352  -1.57997  -0.74132
H    -0.24301  -2.27165   2.24828
H     0.88353  -3.07130   1.12040
H     1.26425  -1.46618   1.75572
28

C     3.06593  -0.28025  -0.10559
N     2.35489   0.47198  -1.11987
C     1.08474   0.93229  -1.05027
O     0.53928   1.49254  -2.02189
N     0.44899   0.73645   0.18070
N    -0.79417   1.17709   0.12859
N    -1.71316   0.75075   0.92624
C    -1.30857   0.57968   2.31319
C    -1.64249  -1.26474   0.23305
C    -2.39590  -1.06185  -1.05322
C    -0.29593  -1.53352   0.23083
C     0.43726  -2.10579   1.40394
H     4.14709  -0.13622  -0.24413
H     2.85614  -1.36252  -0.15567
H     2.78998   0.07770   0.89273
H     2.77528   0.53833  -2.04396
H    -1.12665   1.43025  -0.81446
H    -2.05149  -0.04488   2.83650
H    -1.34577   1.58693   2.75227
H    -0.30848   0.16613   2.47200
H    -2.21922  -1.58648   1.10168
H    -2.57269  -2.04550  -1.50653
H    -3.36920  -0.56900  -0.90904
H    -1.81028  -0.46977  -1.77629
H     0.21143  -1.58316  -0.74249
H    -0.24366  -2.27078   2.24725
H     0.88210  -3.07067   1.11848
H     1.26509  -1.46726   1.75661
28

C     3.06630  -0.28075  -0.10580
N     2.35619   0.47134  -1.12036
C     1.08456   0.92749  -1.05123
O     0.54036   1.49278  -2.02049
N     0.44620   0.72171   0.17733
N    -0.79592   1.18389   0.13024
N    -1.71444   0.72217   0.92107
C    -1.31143   0.57779   2.31244
C    -1.64417  -1.23641   0.24135
C    -2.39490  -1.05986  -1.05098
C    -0.28832  -1.51723   0.23088
C     0.43731  -2.10306   1.40234
H     4.14723  -0.13644  -0.24399
H     2.85622  -1.36268  -0.15562
H     2.78979   0.07762   0.89260
H     2.77605   0.53894  -2.04382
H    -1.12751   1.42724  -0.81469
H    -2.05112  -0.04513   2.83838
H    -1.34802   1.58769   2.74849
H    -0.30866   0.16757   2.47350
H    -2.21799  -1.58784   1.10071
H    -2.56907  -2.04685  -1.50264
H    -3.37025  -0.57063  -0.91029
H    -1.81099  -0.46968  -1.77677
H     0.20933  -1.58634  -0.74366
H    -0.24431  -2.26990   2.24621
H     0.88068  -3.07005   1.11655
H     1.26594  -1.46834   1.75751
28

C     3.06667  -0.28125  -0.10601
N     2.35748   0.47071  -1.12085
C     1.08438   0.92269  -1.05218
O     0.54144   1.49303  -2.01908
N     0.44341   0.70697   0.17395
N    -0.79768   1.19069   0.13189
N    -1.71571   0.69359   0.91589
C    -1.31429   0.57590   2.31169
C    -1.64584  -1.20808   0.24964
C    -2.39391  -1.05787  -1.04875
C    -0.28070  -1.50094   0.23094
C     0.43737  -2.10033   1.40074
H     4.14737  -0.13667  -0.24385
H     2.85631  -1.36284  -0.15557
H     2.78960   0.07753   0.89248
H     2.77683   0.53954  -2.04369
H    -1.12837   1.42423  -0.81492
H    -2.05075  -0.04539   2.84027
H    -1.35026   1.58845   2.74471
H    -0.30884   0.16901   2.47500
H    -2.21676  -1.58920   1.09974
H    -2.56545  -2.04820  -1.49875
H    -3.37130  -0.57226  -0.91154
H    -1.81170  -0.46958  -1.77725
H     0.20724  -1.58953  -0.74484
H    -0.24497  -2.26903   2.24518
H     0.87926  -3.06942   1.11463
H     1.26678  -1.46942   1.75840
28

C     3.06703  -0.28175  -0.10622
N     2.35878   0.47007  -1.12134
C     1.08420   0.91789  -1.05314
O     0.54252   1.49327  -2.01767
N     0.44062   0.69223   0.17058
N    -0.79943   1.19749   0.13354
N    -1.71699   0.66500   0.91072
C    -1.31715   0.57401   2.31094
C    -1.64752  -1.17975   0.25793
C    -2.39291  -1.05588  -1.04651
C    -0.27309  -1.48465   0.23100
C     0.43743  -2.09760   1.39913
H     4.14751  -0.13689  -0.24371
H     2.85640  -1.36300  -0.15551
H     2.78941   0.07745   0.89235
H     2.77760   0.54014  -2.04356
H    -1.12923   1.42122  -0.81516
H    -2.05038  -0.04564   2.84216
H    -1.35251   1.58921   2.74094
H    -0.30902   0.17045   2.47650
H    -2.21553  -1.59056   1.09876
H    -2.56183  -2.04955  -1.49486
H    -3.37236  -0.57389  -0.91279
H    -1.81242  -0.46949  -1.77773
H     0.20515  -1.59271  -0.74601
H    -0.24562  -2.26816   2.24414
H     0.87784  -3.06880   1.11270
H     1.26763  -1.47050   1.75929
28

C     3.06740  -0.28225  -0.10642
N     2.36007   0.46944  -1.12183
C     1.08402   0.91309  -1.05410
O     0.54360   1.49351  -2.01626
N     0.43782   0.67749   0.16720
N    -0.80119   1.20428   0.13519
N    -1.71827   0.63642   0.90555
C    -1.32001   0.57212   2.31020
C    -1.64919  -1.15142   0.26622
C    -2.39191  -1.05389  -1.04427
C    -0.26548  -1.46835   0.23105
C     0.43749  -2.09487   1.39753
H     4.14765  -0.13711  -0.24357
H     2.85648  -1.36316  -0.15546
H     2.78923   0.07736   0.89223
H     2.77838   0.54074  -2.04343
H    -1.13009   1.41821  -0.81539
H    -2.05002  -0.04590   2.84405
H    -1.35476   1.58996   2.73716
H    -0.30920   0.17189   2.47800
H    -2.21430  -1.59192   1.09779
H    -2.55821  -2.05090  -1.49097
H    -3.37341  -0.57552  -0.91404
H    -1.81313  -0.46940  -1.77821
H     0.20305  -1.59590  -0.74718
H    -0.24628  -2.26728   2.24311
H     0.87642  -3.06817   1.11078
H     1.26848  -1.47158   1.76019
28

C     3.06777  -0.28275  -0.10663
N     2.36137   0.46880  -1.12233
C     1.08385   0.90829  -1.05506
O     0.54468   1.49376  -2.01485
N     0.43503   0.66274   0.16383
N    -0.80294   1.21108   0.13684
N    -1.71954   0.60784   0.90038
C    -1.32287   0.57023   2.30945
C    -1.65087  -1.12309   0.27451
C    -2.39092  -1.05190  -1.04204
C    -0.25786  -1.45206   0.23111
C     0.43754  -2.09214   1.39592
H     4.14779  -0.13733  -0.24343
H     2.85657  -1.36332  -0.15541
H     2.78904   0.07728   0.89210
H     2.77915   0.54135  -2.04330
H    -1.13096   1.41519  -0.81562
H    -2.04965  -0.04615   2.84594
H    -1.35700   1.59072   2.73338
H    -0.30938   0.17333   2.47950
H    -2.21307  -1.59328   1.09682
H    -2.55459  -2.05225  -1.48708
H    -3.37447  -0.57715  -0.91529
H    -1.81384  -0.46930  -1.77869
H     0.20096  -1.59908  -0.74836
H    -0.24693  -2.26641   2.24208
H     0.87500  -3.06755   1.10885
H     1.26932  -1.47266   1.76108
28

C     3.06813  -0.28325  -0.10684
N     2.36266   0.46817  -1.12282
C     1.08367   0.90349  -1.05602
O     0.54576   1.49400  -2.01344
N     0.43224   0.64800   0.16045
N    -0.80470   1.21788   0.13849
N    -1.72082   0.57926   0.89521
C    -1.32573   0.56833   2.30870
C    -1.65254  -1.09476   0.28280
C    -2.38992  -1.04991  -1.03980
C    -0.25025  -1.43577   0.23117
C     0.43760  -2.08940   1.39432
H     4.14793  -0.13755  -0.24329
H     2.85666  -1.36348  -0.15535
H     2.78885   0.07719   0.89198
H     2.77993   0.54195  -2.04317
H    -1.13182   1.41218  -0.81586
H    -2.04928  -0.04641   2.84783
H    -1.35925   1.59148   2.72961
H    -0.30956   0.17477   2.48100
H    -2.21184  -1.59464   1.09585
H    -2.55097  -2.05360  -1.48319
H    -3.37552  -0.57878  -0.91655
H    -1.81455  -0.46921  -1.77917
H     0.19886  -1.60227  -0.74953
H    -0.24759  -2.26553   2.24104
H     0.87358  -3.06692   1.10693
H     1.27017  -1.47373   1.76197
28

C     3.06850  -0.28375  -0.10705
N     2.36396   0.46753  -1.12331
C     1.08349   0.89869  -1.05698
O     0.54685   1.49424  -2.01203
N     0.42944   0.63326   0.15708
N    -0.80645   1.22468   0.14014
N    -1.72210   0.55068   0.89004
C    -1.32859   0.56644   2.30795
C    -1.65421  -1.06643   0.29110
C    -2.38892  -1.04793  -1.03756
C    -0.24263  -1.41948   0.23123
C     0.43766  -2.08667   1.39272
H     4.14808  -0.13777  -0.24315
H     2.85674  -1.36364  -0.15530
H     2.78866   0.07711   0.89185
H     2.78070   0.54255  -2.04304
H    -1.13268   1.40917  -0.81609
H    -2.04892  -0.04666   2.84972
H    -1.36149   1.59224   2.72583
H    -0.30974   0.17621   2.48250
H    -2.21061  -1.59600   1.09488
H    -2.54734  -2.05495  -1.47930
H    -3.37657  -0.58041  -0.91780
H    -1.81526  -0.46911  -1.77965
H     0.19677  -1.60545  -0.75070
H    -0.24824  -2.26466   2.24001
H     0.87215  -3.06630   1.10500
H     1.27102  -1.47481   1.76286
28

C     3.06887  -0.28425  -0.10726
N     2.36525   0.46690  -1.12380
C     1.08331   0.89390  -1.05793
O     0.54793   1.49449  -2.01062
N     0.42665   0.61852   0.15371
N    -0.80820   1.23147   0.14179
N    -1.72337   0.52210   0.88486
C    -1.33145   0.56455   2.30720
C    -1.65589  -1.03810   0.29939
C    -2.38792  -1.04594  -1.03533
C    -0.23502  -1.40319   0.23128
C     0.43772  -2.08394   1.39111
H     4.14822  -0.13800  -0.24301
H     2.85683  -1.36380  -0.15524
H     2.78847   0.07702   0.89173
H     2.78148   0.54316  -2.04291
H    -1.13354   1.40616  -0.81633
H    -2.04855  -0.04691   2.85160
H    -1.36374   1.59299   2.72206
H    -0.30992   0.17765   2.48400
H    -2.20938  -1.59736   1.09390
H    -2.54372  -2.05630  -1.47541
H    -3.37763  -0.58204  -0.91905
H    -1.81597  -0.46902  -1.78012
H     0.19467  -1.60863  -0.75187
H    -0.24890  -2.26379   2.23897
H     0.87073  -3.06567   1.10307
H     1.27186  -1.47589   1.76376
28

C     3.06923  -0.28475  -0.10746
N     2.36655   0.46626  -1.12429
C     1.08313   0.88910  -1.05889
O     0.54901   1.49473  -2.00921
N     0.42386   0.60378   0.15033
N    -0.80996   1.23827   0.14344
N    -1.72465   0.49352   0.87969
C    -1.33431   0.56266   2.30645
C    -1.65756  -1.00977   0.30768
C    -2.38693  -1.04395  -1.03309
C    -0.22741  -1.38690   0.23134
C     0.43777  -2.08121   1.38951
H     4.14836  -0.13822  -0.24287
H     2.85692  -1.36396  -0.15519
H     2.78829   0.07694   0.89160
H     2.78225   0.54376  -2.04278
H    -1.13441   1.40315  -0.81656
H    -2.04818  -0.04717   2.85349
H    -1.36598   1.59375   2.71828
H    -0.31010   0.17909   2.48550
H    -2.20815  -1.59872   1.09293
H    -2.54010  -2.05765  -1.47151
H    -3.37868  -0.58367  -0.92030
H    -1.81669  -0.46893  -1.78060
H     0.19258  -1.61182  -0.75305
H    -0.24955  -2.26291   2.23794
H     0.86931  -3.06505   1.10115
H     1.27271  -1.47697   1.76465
28

C     3.06960  -0.28525  -0.10767
N     2.36784   0.46563  -1.12478
C     1.08295   0.88430  -1.05985
O     0.55009   1.49497  -2.00780
N     0.42107   0.58903   0.14696
N    -0.81171   1.24507   0.14509
N    -1.72593   0.46494   0.87452
C    -1.33717   0.56077   2.30571
C    -1.65924  -0.98144   0.31597
C    -2.38593  -1.04196  -1.03085
C    -0.21979  -1.37061   0.23140
C     0.43783  -2.07848   1.38790
H     4.14850  -0.13844  -0.24273
H     2.85700  -1.36412  -0.15514
H     2.78810   0.07685   0.89148
H     2.78303   0.54436  -2.04265
H    -1.13527   1.40014  -0.81679
H    -2.04781  -0.04742   2.85538
H    -1.36823   1.59451   2.71450
H    -0.31028   0.18053   2.48700
H    -2.20692  -1.60008   1.09196
H    -2.53648  -2.05900  -1.46762
H    -3.37973  -0.58530  -0.92155
H    -1.81740  -0.46883  -1.78108
H     0.19049  -1.61500  -0.75422
H    -0.25020  -2.26204   2.23691
H     0.86789  -3.06442   1.09922
H     1.27355  -1.47805   1.76554
28

C     3.06996  -0.28575  -0.10788
N     2.36914   0.46499  -1.12527
C     1.08278   0.87950  -1.06081
O     0.55117   1.49521  -2.00639
N     0.41827   0.57429   0.14358
N    -0.81347   1.25187   0.14674
N    -1.72720   0.43636   0.86935
C    -1.34003   0.55888   2.30496
C    -1.66091  -0.95311   0.32426
C    -2.38493  -1.03997  -1.02862
C    -0.21218  -1.35432   0.23145
C     0.43789  -2.07575   1.38630
H     4.14864  -0.13866  -0.24259
H     2.85709  -1.36428  -0.15508
H     2.78791   0.07677   0.89135
H     2.78380   0.54496  -2.04252
H    -1.13613   1.39713  -0.81703
H    -2.04745  -0.04768   2.85727
H    -1.37047   1.59527   2.71073
H    -0.31046   0.18196   2.48850
H    -2.20569  -1.60143   1.09099
H    -2.53286  -2.06035  -1.46373
H    -3.38079  -0.58693  -0.92280
H    -1.81811  -0.46874  -1.78156
H     0.18839  -1.61819  -0.75539
H    -0.25086  -2.26116   2.23587
H     0.86647  -3.06380   1.09730
H     1.27440  -1.47913   1.76644
28

C     3.07033  -0.28625  -0.10809
N     2.37043   0.46435  -1.12577
C     1.08260   0.87470  -1.06177
O     0.55225   1.49546  -2.00498
N     0.41548   0.55955   0.14021
N    -0.81522   1.25866   0.14839
N    -1.72848   0.40777   0.86418
C    -1.34289   0.55699   2.30421
C    -1.66259  -0.92478   0.33255
C    -2.38394  -1.03798  -1.02638
C    -0.20456  -1.33803   0.23151
C     0.43795  -2.07302   1.38470
H     4.14878  -0.13888  -0.24245
H     2.85718  -1.36444  -0.15503
H     2.78772   0.07668   0.89123
H     2.78457   0.54557  -2.04239
H    -1.13699   1.39412  -0.81726
H    -2.04708  -0.04793   2.85916
H    -1.37272   1.59603   2.70695
H    -0.31064   0.18340   2.49000
H    -2.20446  -1.60279   1.09002
H    -2.52924  -2.06170  -1.45984
H    -3.38184  -0.58856  -0.92405
H    -1.81882  -0.46864  -1.78204
H     0.18630  -1.62137  -0.75656
H    -0.25151  -2.26029   2.23484
H     0.86505  -3.06317   1.09537
H     1.27525  -1.48021   1.76733
28

C     3.07070  -0.28676  -0.10830
N     2.37172   0.46372  -1.12626
C     1.08242   0.86990  -1.06273
O     0.55333   1.49570  -2.00357
N     0.41269   0.54481   0.13683
N    -0.81697   1.26546   0.15004
N    -1.72976   0.37919   0.85901
C    -1.34575   0.55510   2.30346
C    -1.66426  -0.89645   0.34085
C    -2.38294  -1.03600  -1.02414
C    -0.19695  -1.32174   0.23157
C     0.43800  -2.07029   1.38309
H     4.14892  -0.13910  -0.24231
H     2.85726  -1.36460  -0.15498
H     2.78754   0.07660   0.89110
H     2.78535   0.54617  -2.04226
H    -1.13786   1.39111  -0.81749
H    -2.04671  -0.04819   2.86105
H    -1.37496   1.59678   2.70317
H    -0.31081   0.18484   2.49150
H    -2.20323  -1.60415   1.08904
H    -2.52562  -2.06305  -1.45595
H    -3.38290  -0.59020  -0.92531
H    -1.81953  -0.46855  -1.78252
H     0.18420  -1.62456  -0.75774
H    -0.25217  -2.25942   2.23380
H     0.86363  -3.06255   1.09345
H     1.27609  -1.48129   1.76822
28

C     3.07033  -0.28625  -0.10809
N     2.37043   0.46435  -1.12577
C     1.08260   0.87470  -1.06177
O     0.55225   1.49546  -2.00498
N     0.41548   0.55955   0.14021
N    -0.81522   1.25866   0.14839
N    -1.72848   0.40777   0.86418
C    -1.34289   0.55699   2.30421
C    -1.66259  -0.92478   0.33255
C    -2.38394  -1.03798  -1.02638
C    -0.20456  -1.33803   0.23151
C     0.43795  -2.07302   1.38470
H     4.14878  -0.13888  -0.24245
H     2.85718  -1.36444  -0.15503
H     2.78772   0.07668   0.89123
H     2.78457   0.54557  -2.04239
H    -1.13699   1.39412  -0.81726
H    -2.04708  -0.04793   2.85916
H    -1.37272   1.59603   2.70695
H    -0.31064   0.18340   2.49000
H    -2.20446  -1.60279   1.09002
H    -2.52924  -2.06170  -1.45984
H    -3.38184  -0.58856  -0.92405
H    -1.81882  -0.46864  -1.78204
H     0.18630  -1.62137  -0.75656
H    -0.25151  -2.26029   2.23484
H     0.86505  -3.06317   1.09537
H     1.27525  -1.48021   1.76733
28

C     3.06996  -0.28575  -0.10788
N     2.36914   0.46499  -1.12527
C     1.08278   0.87950  -1.06081
O     0.55117   1.49521  -2.00639
N     0.41827   0.57429   0.14358
N    -0.81347   1.25187   0.14674
N    -1.72720   0.43636   0.86935
C    -1.34003   0.55888   2.30496
C    -1.66091  -0.95311   0.32426
C    -2.38493  -1.03997  -1.02862
C    -0.21218  -1.35432   0.23145
C     0.43789  -2.07575   1.38630
H     4.14864  -0.13866  -0.24259
H     2.85709  -1.36428  -0.15508
H     2.78791   0.07677   0.89135
H     2.78380   0.54496  -2.04252
H    -1.13613   1.39713  -0.81703
H    -2.04745  -0.04768   2.85727
H    -1.37047   1.59527   2.71073
H    -0.31046   0.18196   2.48850
H    -2.20569  -1.60143   1.09099
H    -2.53286  -2.06035  -1.46373
H    -3.38079  -0.58693  -0.92280
H    -1.81811  -0.46874  -1.78156
H     0.18839  -1.61819  -0.75539
H    -0.25086  -2.26116   2.23587
H     0.86647  -3.06380   1.09730
H     1.27440  -1.47913   1.76644
28

C     3.06960  -0.28525  -0.10767
N     2.36784   0.46563  -1.12478
C     1.08295   0.88430  -1.05985
O     0.55009   1.49497  -2.00780
N     0.42107   0.58903   0.14696
N    -0.81171   1.24507   0.14509
N    -1.72593   0.46494   0.87452
C    -1.33717   0.56077   2.30571
C    -1.65924  -0.98144   0.31597
C    -2.38593  -1.04196  -1.03085
C    -0.21979  -1.37061   0.23140
C     0.43783  -2.07848   1.38790
H     4.14850  -0.13844  -0.24273
H     2.85700  -1.36412  -0.15514
H     2.78810   0.07685   0.89148
H     2.78303   0.54436  -2.04265
H    -1.13527   1.40014  -0.81679
H    -2.04781  -0.04742   2.85538
H    -1.36823   1.59451   2.71450
H    -0.31028   0.18053   2.48700
H    -2.20692  -1.60008   1.09196
H    -2.53648  -2.05900  -1.46762
H    -3.37973  -0.58530  -0.92155
H    -1.81740  -0.46883  -1.78108
H     0.19049  -1.61500  -0.75422
H    -0.25020  -2.26204   2.23691
H     0.86789  -3.06442   1.09922
H     1.27355  -1.47805   1.76554
28

C     3.06923  -0.28475  -0.10746
N     2.36655   0.46626  -1.12429
C     1.08313   0.88910  -1.05889
O     0.54901   1.49473  -2.00921
N     0.42386   0.60378   0.15033
N    -0.80996   1.23827   0.14344
N    -1.72465   0.49352   0.87969
C    -1.33431   0.56266   2.30645
C    -1.65756  -1.00977   0.30768
C    -2.38693  -1.04395  -1.03309
C    -0.22741  -1.38690   0.23134
C     0.43777  -2.08121   1.38951
H     4.14836  -0.13822  -0.24287
H     2.85692  -1.36396  -0.15519
H     2.78829   0.07694   0.89160
H     2.78225   0.54376  -2.04278
H    -1.13441   1.40315  -0.81656
H    -2.04818  -0.04717   2.85349
H    -1.36598   1.59375   2.71828
H    -0.31010   0.17909   2.48550
H    -2.20815  -1.59872   1.09293
H    -2.54010  -2.05765  -1.47151
H    -3.37868  -0.58367  -0.92030
H    -1.81669  -0.46893  -1.78060
H     0.19258  -1.61182  -0.75305
H    -0.24955  -2.26291   2.23794
H     0.86931  -3.06505   1.10115
H     1.27271  -1.47697   1.76465
28

C     3.06887  -0.28425  -0.10726
N     2.36525   0.46690  -1.12380
C     1.08331   0.89390  -1.05793
O     0.54793   1.49449  -2.01062
N     0.42665   0.61852   0.15371
N    -0.80820   1.23147   0.14179
N    -1.72337   0.52210   0.88486
C    -1.33145   0.56455   2.30720
C    -1.65589  -1.03810   0.29939
C    -2.38792  -1.04594  -1.03533
C    -0.23502  -1.40319   0.23128
C     0.43772  -2.08394   1.39111
H     4.14822  -0.13800  -0.24301
H     2.85683  -1.36380  -0.15524
H     2.78847   0.07702   0.89173
H     2.78148   0.54316  -2.04291
H    -1.13354   1.40616  -0.81633
H    -2.04855  -0.04691   2.85160
H    -1.36374   1.59299   2.72206
H    -0.30992   0.17765   2.48400
H    -2.20938  -1.59736   1.09390
H    -2.54372  -2.05630  -1.47541
H    -3.37763  -0.58204  -0.91905
H    -1.81597  -0.46902  -1.78012
H     0.19467  -1.60863  -0.75187
H    -0.24890  -2.26379   2.23897
H     0.87073  -3.06567   1.10307
H     1.27186  -1.47589   1.76376
28

C     3.06850  -0.28375  -0.10705
N     2.36396   0.46753  -1.12331
C     1.08349   0.89869  -1.05698
O     0.54685   1.49424  -2.01203
N     0.42944   0.63326   0.15708
N    -0.80645   1.22468   0.14014
N    -1.72210   0.55068   0.89004
C    -1.32859   0.56644   2.30795
C    -1.65421  -1.06643   0.29110
C    -2.38892  -1.04793  -1.03756
C    -0.24263  -1.41948   0.23123
C     0.43766  -2.08667   1.39272
H     4.14808  -0.13777  -0.24315
H     2.85674  -1.36364  -0.15530
H     2.78866   0.07711   0.89185
H     2.78070   0.54255  -2.04304
H    -1.13268   1.40917  -0.81609
H    -2.04892  -0.04666   2.84972
H    -1.36149   1.59224   2.72583
H    -0.30974   0.17621   2.48250
H    -2.21061  -1.59600   1.09488
H    -2.54734  -2.05495  -1.47930
H    -3.37657  -0.58041  -0.91780
H    -1.81526  -0.46911  -1.77965
H     0.19677  -1.60545  -0.75070
H    -0.24824  -2.26466   2.24001
H     0.87215  -3.06630   1.10500
H     1.27102  -1.47481   1.76286
28

C     3.06813  -0.28325  -0.10684
N     2.36266   0.46817  -1.12282
C     1.08367   0.90349  -1.05602
O     0.54576   1.49400  -2.01344
N     0.43224   0.64800   0.16045
N    -0.80470   1.21788   0.13849
N    -1.72082   0.57926   0.89521
C    -1.32573   0.56833   2.30870
C    -1.65254  -1.09476   0.28280
C    -2.38992  -1.04991  -1.03980
C    -0.25025  -1.43577   0.23117
C     0.43760  -2.08940   1.39432
H     4.14793  -0.13755  -0.24329
H     2.85666  -1.36348  -0.15535
H     2.78885   0.07719   0.89198
H     2.77993   0.54195  -2.04317
H    -1.13182   1.41218  -0.81586
H    -2.04928  -0.04641   2.84783
H    -1.35925   1.59148   2.72961
H    -0.30956   0.17477   2.48100
H    -2.21184  -1.59464   1.09585
H    -2.55097  -2.05360  -1.48319
H    -3.37552  -0.57878  -0.91655
H    -1.81455  -0.46921  -1.77917
H     0.19886  -1.60227  -0.74953
H    -0.24759  -2.26553   2.24104
H     0.87358  -3.06692   1.10693
H     1.27017  -1.47373   1.76197
28

C     3.06777  -0.28275  -0.10663
N     2.36137   0.46880  -1.12233
C     1.08385   0.90829  -1.05506
O     0.54468   1.49376  -2.01485
N     0.43503   0.66274   0.16383
N    -0.80294   1.21108   0.13684
N    -1.71954   0.60784   0.90038
C    -1.32287   0.57023   2.30945
C    -1.65087  -1.12309   0.27451
C    -2.39092  -1.05190  -1.04204
C    -0.25786  -1.45206   0.23111
C     0.43754  -2.09214   1.39592
H     4.14779  -0.13733  -0.24343
H     2.85657  -1.36332  -0.15541
H     2.78904   0.07728   0.89210
H     2.77915   0.54135  -2.04330
H    -1.13096   1.41519  -0.81562
H    -2.04965  -0.04615   2.84594
H    -1.35700   1.59072   2.73338
H    -0.30938   0.17333   2.47950
H    -2.21307  -1.59328   1.09682
H    -2.55459  -2.05225  -1.48708
H    -3.37447  -0.57715  -0.91529
H    -1.81384  -0.46930  -1.77869
H     0.20096  -1.59908  -0.74836
H    -0.24693  -2.26641   2.24208
H     0.87500  -3.06755   1.10885
H     1.26932  -1.47266   1.76108
28

C     3.06740  -0.28225  -0.10642
N     2.36007   0.46944  -1.12183
C     1.08402   0.91309  -1.05410
O     0.54360   1.49351  -2.01626
N     0.43782   0.67749   0.16720
N    -0.80119   1.20428   0.13519
N    -1.71827   0.63642   0.90555
C    -1.32001   0.57212   2.31020
C    -1.64919  -1.15142   0.26622
C    -2.39191  -1.05389  -1.04427
C    -0.26548  -1.46835   0.23105
C     0.43749  -2.09487   1.39753
H     4.14765  -0.13711  -0.24357
H     2.85648  -1.36316  -0.15546
H     2.78923   0.07736   0.89223
H     2.77838   0.54074  -2.04343
H    -1.13009   1.41821  -0.81539
H    -2.05002  -0.04590   2.84405
H    -1.35476   1.58996   2.73716
H    -0.30920   0.17189   2.47800
H    -2.21430  -1.59192   1.09779
H    -2.55821  -2.05090  -1.49097
H    -3.37341  -0.57552  -0.91404
H    -1.81313  -0.46940  -1.77821
H     0.20305  -1.59590  -0.74718
H    -0.24628  -2.26728   2.24311
H     0.87642  -3.06817   1.11078
H     1.26848  -1.47158   1.76019
28

C     3.06703  -0.28175  -0.10622
N     2.35878   0.47007  -1.12134
C     1.08420   0.91789  -1.05314
O     0.54252   1.49327  -2.01767
N     0.44062   0.69223   0.17058
N    -0.79943   1.19749   0.13354
N    -1.71699   0.66500   0.91072
C    -1.31715   0.57401   2.31094
C    -1.64752  -1.17975   0.25793
C    -2.39291  -1.05588  -1.04651
C    -0.27309  -1.48465   0.23100
C     0.43743  -2.09760   1.39913
H     4.14751  -0.13689  -0.24371
H     2.85640  -1.36300  -0.15551
H     2.78941   0.07745   0.89235
H     2.77760   0.54014  -2.04356
H    -1.12923   1.42122  -0.81516
H    -2.05038  -0.04564   2.84216
H    -1.35251   1.58921   2.74094
H    -0.30902   0.17045   2.47650
H    -2.21553  -1.59056   1.09876
H    -2.56183  -2.04955  -1.49486
H    -3.37236  -0.57389  -0.91279
H    -1.81242  -0.46949  -1.77773
H     0.20515  -1.59271  -0.74601
H    -0.24562  -2.26816   2.24414
H     0.87784  -3.06880   1.11270
H     1.26763  -1.47050   1.75929
28

C     3.06667  -0.28125  -0.10601
N     2.35748   0.47071  -1.12085
C     1.08438   0.92269  -1.05218
O     0.54144   1.49303  -2.01908
N     0.44341   0.70697   0.17395
N    -0.79768   1.19069   0.13189
N    -1.71571   0.69359   0.91589
C    -1.31429   0.57590   2.31169
C    -1.64584  -1.20808   0.24964
C    -2.39391  -1.05787  -1.04875
C    -0.28070  -1.50094   0.23094
C     0.43737  -2.10033   1.40074
H     4.14737  -0.13667  -0.24385
H     2.85631  -1.36284  -0.15557
H     2.78960   0.07753   0.89248
H     2.77683   0.53954  -2.04369
H    -1.12837   1.42423  -0.81492
H    -2.05075  -0.04539   2.84027
H    -1.35026   1.58845   2.74471
H    -0.30884   0.16901   2.47500
H    -2.21676  -1.58920   1.09974
H    -2.56545  -2.04820  -1.49875
H    -3.37130  -0.57226  -0.91154
H    -1.81170  -0.46958  -1.77725
H     0.20724  -1.58953  -0.74484
H    -0.24497  -2.26903   2.24518
H     0.87926  -3.06942   1.11463
H     1.26678  -1.46942   1.75840
28

C     3.06630  -0.28075  -0.10580
N     2.35619   0.47134  -1.12036
C     1.08456   0.92749  -1.05123
O     0.54036   1.49278  -2.02049
N     0.44620   0.72171   0.17733
N    -0.79592   1.18389   0.13024
N    -1.71444   0.72217   0.92107
C    -1.31143   0.57779   2.31244
C    -1.64417  -1.23641   0.24135
C    -2.39490  -1.05986  -1.05098
C    -0.28832  -1.51723   0.23088
C     0.43731  -2.10306   1.40234
H     4.14723  -0.13644  -0.24399
H     2.85622  -1.36268  -0.15562
H     2.78979   0.07762   0.89260
H     2.77605   0.53894  -2.04382
H    -1.12751   1.42724  -0.81469
H    -2.05112  -0.04513   2.83838
H    -1.34802   1.58769   2.74849
H    -0.30866   0.16757   2.47350
H    -2.21799  -1.58784   1.10071
H    -2.56907  -2.04685  -1.50264
H    -3.37025  -0.57063  -0.91029
H    -1.81099  -0.46968  -1.77677
H     0.20933  -1.58634  -0.74366
H    -0.24431  -2.26990   2.24621
H     0.88068  -3.07005   1.11655
H     1.26594  -1.46834   1.75751
28

C     3.06593  -0.28025  -0.10559
N     2.35489   0.47198  -1.11987
C     1.08474   0.93229  -1.05027
O     0.53928   1.49254  -2.02189
N     0.44899   0.73645   0.18070
N    -0.79417   1.17709   0.12859
N    -1.71316   0.75075   0.92624
C    -1.30857   0.57968   2.31319
C    -1.64249  -1.26474   0.23305
C    -2.39590  -1.06185  -1.05322
C    -0.29593  -1.53352   0.23083
C     0.43726  -2.10579   1.40394
H     4.14709  -0.13622  -0.24413
H     2.85614  -1.36252  -0.15567
H     2.78998   0.07770   0.89273
H     2.77528   0.53833  -2.04396
H    -1.12665   1.43025  -0.81446
H    -2.05149  -0.04488   2.83650
H    -1.34577   1.58693   2.75227
H    -0.30848   0.16613   2.47200
H    -2.21922  -1.58648   1.10168
H    -2.57269  -2.04550  -1.50653
H    -3.36920  -0.56900  -0.90904
H    -1.81028  -0.46977  -1.77629
H     0.21143  -1.58316  -0.74249
H    -0.24366  -2.27078   2.24725
H     0.88210  -3.07067   1.11848
H     1.26509  -1.46726   1.75661
28

C     3.06557  -0.27975  -0.10538
N     2.35360   0.47261  -1.11938
C     1.08492   0.93709  -1.04931
O     0.53820   1.49230  -2.02330
N     0.45179   0.75119   0.18408
N    -0.79242   1.17030   0.12694
N    -1.71188   0.77933   0.93141
C    -1.30571   0.58157   2.31394
C    -1.64082  -1.29307   0.22476
C    -2.39690  -1.06383  -1.05546
C    -0.30355  -1.54981   0.23077
C     0.43720  -2.10852   1.40555
H     4.14695  -0.13600  -0.24427
H     2.85605  -1.36236  -0.15573
H     2.79016   0.07779   0.89285
H     2.77450   0.53773  -2.04409
H    -1.12578   1.43326  -0.81422
H    -2.05185  -0.04462   2.83461
H    -1.34353   1.58618   2.75604
H    -0.30831   0.16469   2.47050
H    -2.22045  -1.58512   1.10265
H    -2.57631  -2.04415  -1.51042
H    -3.36814  -0.56737  -0.90779
H    -1.80957  -0.46987  -1.77581
H     0.21352  -1.57997  -0.74132
H    -0.24301  -2.27165   2.24828
H     0.88353  -3.07130   1.12040
H     1.26425  -1.46618   1.75572
28

C     3.06520  -0.27925  -0.10518
N     2.35230   0.47325  -1.11888
C     1.08509   0.94189  -1.04835
O     0.53711   1.49206  -2.02471
N     0.45458   0.76594   0.18745
N    -0.79066   1.16350   0.12529
N    -1.71061   0.80791   0.93658
C    -1.30285   0.58346   2.31469
C    -1.63914  -1.32140   0.21647
C    -2.39789  -1.06582  -1.05770
C    -0.31116  -1.56610   0.23071
C     0.43714  -2.11125   1.40715
H     4.14681  -0.13578  -0.24441
H     2.85596  -1.36219  -0.15578
H     2.79035   0.07787   0.89298
H     2.77373   0.53713  -2.04422
H    -1.12492   1.43627  -0.81399
H    -2.05222  -0.04437   2.83272
H    -1.34128   1.58542   2.75982
H    -0.30813   0.16325   2.46900
H    -2.22167  -1.58377   1.10362
H    -2.57993  -2.04280  -1.51432
H    -3.36709  -0.56574  -0.90653
H    -1.80886  -0.46996  -1.77533
H     0.21562  -1.57679  -0.74015
H    -0.24235  -2.27253   2.24931
H     0.88495  -3.07192   1.12233
H     1.26340  -1.46510   1.75483
28

C     3.06484  -0.27875  -0.10497
N     2.35101   0.47389  -1.11839
C     1.08527   0.94669  -1.04739
O     0.53603   1.49181  -2.02612
N     0.45737   0.78068   0.19082
N    -0.78891   1.15670   0.12364
N    -1.70933   0.83649   0.94175
C    -1.29999   0.58535   2.31543
C    -1.63747  -1.34974   0.20818
C    -2.39889  -1.06781  -1.05993
C    -0.31877  -1.58239   0.23066
C     0.43708  -2.11398   1.40876
H     4.14667  -0.13556  -0.24455
H     2.85587  -1.36203  -0.15583
H     2.79054   0.07796   0.89310
H     2.77295   0.53652  -2.04435
H    -1.12406   1.43928  -0.81376
H    -2.05259  -0.04411   2.83083
H    -1.33904   1.58466   2.76360
H    -0.30795   0.16181   2.46750
H    -2.22290  -1.58241   1.10460
H    -2.58355  -2.04145  -1.51821
H    -3.36603  -0.56411  -0.90528
H    -1.80815  -0.47005  -1.77485
H     0.21771  -1.57361  -0.73897
H    -0.24170  -2.27340   2.25035
H     0.88637  -3.07255   1.12425
H     1.26255  -1.46402   1.75393
28

C     3.06447  -0.27825  -0.10476
N     2.34971   0.47452  -1.11790
C     1.08545   0.95148  -1.04644
O     0.53495   1.49157  -2.02753
N     0.46017   0.79542   0.19420
N    -0.78715   1.14990   0.12199
N    -1.70805   0.86507   0.94692
C    -1.29713   0.58724   2.31618
C    -1.63580  -1.37807   0.19989
C    -2.39989  -1.06980  -1.06217
C    -0.32639  -1.59868   0.23060
C     0.43703  -2.11671   1.41036
H     4.14653  -0.13534  -0.24469
H     2.85579  -1.36187  -0.15589
H     2.79073   0.07804   0.89323
H     2.77218   0.53592  -2.04448
H    -1.12320   1.44229  -0.81352
H    -2.05296  -0.04386   2.82894
H    -1.33679   1.58390   2.76737
H    -0.30777   0.16037   2.46600
H    -2.22413  -1.58105   1.10557
H    -2.58717  -2.04010  -1.52210
H    -3.36498  -0.56247  -0.90403
H    -1.80743  -0.47015  -1.77438
H     0.21981  -1.57042  -0.73780
H    -0.24104  -2.27427   2.25138
H     0.88779  -3.07317   1.12618
H     1.26171  -1.46294   1.75304
28

C     3.06410  -0.27775  -0.10455
N     2.34842   0.47516  -1.11741
C     1.08563   0.95628  -1.04548
O     0.53387   1.49133  -2.02894
N     0.46296   0.81016   0.19757
N    -0.78540   1.14311   0.12034
N    -1.70678   0.89365   0.95210
C    -1.29427   0.58913   2.31693
C    -1.63412  -1.40640   0.19160
C    -2.40089  -1.07179  -1.06441
C    -0.33400  -1.61497   0.23054
C     0.43697  -2.11944   1.41196
H     4.14638  -0.13511  -0.24483
H     2.85570  -1.36171  -0.15594
H     2.79091   0.07813   0.89335
H     2.77140   0.53532  -2.04461
H    -1.12233   1.44531  -0.81329
H    -2.05332  -0.04361   2.82705
H    -1.33455   1.58315   2.77115
H    -0.30759   0.15893   2.46450
H    -2.22536  -1.57969   1.10654
H    -2.59080  -2.03875  -1.52599
H    -3.36393  -0.56084  -0.90278
H    -1.80672  -0.47024  -1.77390
H     0.22190  -1.56724  -0.73663
H    -0.24039  -2.27515   2.25242
H     0.88921  -3.07380   1.12810
H     1.26086  -1.46187   1.75215
28

C     3.06374  -0.27725  -0.10434
N     2.34713   0.47579  -1.11692
C     1.08581   0.96108  -1.04452
O     0.53279   1.49108  -2.03035
N     0.46575   0.82490   0.20095
N    -0.78364   1.13631   0.11869
N    -1.70550   0.92224   0.95727
C    -1.29141   0.59102   2.31768
C    -1.63245  -1.43473   0.18330
C    -2.40188  -1.07378  -1.06664
C    -0.34162  -1.63126   0.23049
C     0.43691  -2.12217   1.41357
H     4.14624  -0.13489  -0.24497
H     2.85561  -1.36155  -0.15599
H     2.79110   0.07821   0.89348
H     2.77063   0.53472  -2.04474
H    -1.12147   1.44832  -0.81305
H    -2.05369  -0.04335   2.82517
H    -1.33230   1.58239   2.77493
H    -0.30741   0.15749   2.46300
H    -2.22659  -1.57833   1.10751
H    -2.59442  -2.03740  -1.52988
H    -3.36287  -0.55921  -0.90153
H    -1.80601  -0.47034  -1.77342
H     0.22400  -1.56405  -0.73546
H    -0.23973  -2.27602   2.25345
H     0.89063  -3.07442   1.13003
H     1.26001  -1.46079   1.75125
