14

C 2.608823134 1.318144575 0.159193250
C 2.697272087 -1.249289891 -0.180321352
O -0.878964986 -3.239775589 0.257171770
C -2.950046313 -2.087959283 0.270072817
O -2.522948953 1.071146732 1.282956325
C -1.029515045 2.242448268 -0.167061465
H 2.985175169 2.061851394 2.029374429
H 3.138212182 2.519223603 -1.414067149
H 2.844027821 -2.066954845 -2.046591685
H 2.989883214 -2.525342933 1.378892524
H -4.322206196 -2.542542351 1.759687229
H -3.841015785 -1.550879371 -1.544406057
H -0.551241917 4.165097144 0.390856155
H -1.164837161 1.900604182 -2.209930617

