12

C -2.988398361 0.585238562 0.265722327
C -0.761992413 -0.934661527 -0.657052180
N 0.113888408 -0.467747713 -3.167786151
H -1.335527750 -0.189820476 -4.380743279
H 1.266186310 1.051608230 -3.236845304
O -0.859279369 -3.526029658 0.018980428
C 1.060554061 -2.010145974 1.111771327
H 0.865319198 -1.649419688 3.124984156
H 2.962977784 -2.408349290 0.451123471
H -3.494300684 0.062127902 2.192111104
H -2.565320335 2.603909204 0.208700862
H -4.623955321 0.236480743 -0.946752921

