10

O 5.230678179 0.899815658 1.193804829
C 3.800985697 -0.173502918 -0.184946400
C 0.998327610 0.015505713 0.040527388
N -0.594018740 -1.047735520 -1.353364951
C -3.025804659 -0.237573704 -0.333130351
C -2.517655433 1.459389282 1.879383162
O -0.034874140 1.524153315 1.986384784
H 4.410108848 -1.402917236 -1.755088278
H -4.173638064 -1.858157173 0.246946292
H -4.136178382 0.767909939 -1.760973585

