10

O 5.151326179 1.362014624 0.925616825
C 3.775175421 0.093015287 -0.334876760
C 0.976257593 0.002161941 0.040901421
N -0.528294311 -1.355792852 -1.283314617
C -2.876963952 -0.824859614 -0.172757761
C -2.670295831 0.845165780 1.929276259
O -0.109547234 1.402282174 1.854920185
H 4.430130024 -1.132534031 -1.889553555
H -4.562196765 -1.855582156 -0.697254629
H -3.585593013 1.464128848 -0.372957387

