10

C -1.353751815 -2.268957233 0.814073946
C -0.229618807 4.152392081 -0.296580799
N 0.949886880 2.116774035 -0.498970675
C 2.216109057 0.117995501 -0.333119069
O 1.254485919 -2.177820107 0.204133639
H -1.767776882 -4.235994056 1.236686835
H -2.508491527 -1.641860424 -0.780571482
H -1.033772730 4.712371619 -2.137059640
H -1.771925946 -1.093371461 2.457349756
H 4.232933550 0.094809619 -0.664940955

