13

C -2.995973574 0.445375075 0.620191692
C -0.594405019 -0.787668613 -0.321198545
O -0.576937694 -0.635384807 -2.988397039
C 1.751191833 0.467671273 0.745671775
O 3.870552280 -0.791703443 -0.311407137
H -3.043371836 2.436312871 0.079179581
H -3.143149432 0.307621373 2.673308413
H -4.634961104 -0.481939083 -0.213549710
H -0.561771036 -2.782239124 0.263959855
H 1.072052307 -1.173660991 -3.531841322
H 1.743165165 2.471891803 0.215833255
H 1.756623775 0.320058133 2.813405357
H 5.356984336 0.203665517 -0.045156177

