15

C -4.209641391 0.235013654 0.085307680
C -1.363633080 0.492569624 -0.123936970
O -0.372473976 1.909283259 1.952760358
C -0.112304477 -2.083087739 -0.391491405
C 4.082950202 0.181288665 -0.516806156
N 2.341160077 -1.977017695 -0.529005490
H -5.110397697 2.085414257 0.221376446
H -4.951978384 -0.763626894 -1.557417464
H -4.701903084 -0.886995151 1.749832383
H -0.919446718 1.612641252 -1.816834607
H -0.969050102 1.127084590 3.477453190
H 3.205993125 1.821480688 -1.388484037
H 4.605764439 0.685083791 1.408524318
H 5.769788016 -0.331671331 -1.581561531
H 3.223120544 -3.662373795 -0.673009934

