15

C -3.854704602 -0.109023327 -0.094204246
C -1.236161548 1.109214452 -0.198098062
O -0.565210564 2.119137875 2.188350020
C 0.488517768 -0.934971952 -1.261993386
C 3.677718654 0.009571803 -0.355599497
N 2.033922168 -1.933395730 0.723962771
H -5.195756494 1.241512269 0.693785905
H -4.482980637 -0.685646193 -1.969120435
H -3.824483175 -1.780685752 1.119565200
H -1.290102230 2.705398760 -1.506211763
H 0.007341378 0.709497428 3.193924975
H 2.619212452 0.497358266 -2.294590593
H 3.851344725 1.680018133 0.809896007
H 5.417211987 -0.731798520 -1.150777126
H 2.695439241 -3.654544451 0.218709777

