12

C 1.967722586 1.764555598 2.088960762
N 1.262254262 1.038572672 -0.439221371
C -0.460475650 -0.623085543 -1.123861285
N 0.209812153 -1.464601317 -3.363021977
C -2.799002053 -1.345366931 0.306994815
O -4.364899305 -2.730095004 -0.563292266
H 3.390927430 0.485075122 2.875419989
H 2.773303517 3.659590152 2.052488236
H 0.352342592 1.791512258 3.377215445
H 1.991051104 0.242168762 -2.754999044
H -1.087382522 -2.181504770 -4.565860283
H -3.025397536 -0.490148054 2.196856509

