8

C 3.200660544 -0.134446153 -0.561858625
C 2.387978609 2.090821368 -1.829990408
C 1.731720076 3.957194011 -2.934724508
H 1.146400426 5.617905134 -3.905242606
C 2.223238484 -0.863151985 1.605249683
N 1.494284814 -1.443341218 3.695003374
H -0.038252989 -2.593530280 3.806442036
H 4.657513871 -1.306804896 -1.394352562

