16

N 1.653517975 0.229270682 3.918214026
C 2.424219134 -1.197498469 1.837264304
O 4.503138459 -2.205218433 1.860895442
C 0.665505567 -1.455700480 -0.233050512
C -2.168393756 -1.105073797 0.118939230
C -2.457728797 1.263499100 -1.290386615
O 0.482945930 2.189092625 -3.571179731
H 3.087862131 0.612394796 5.108118650
H 0.478200544 1.692695588 3.627645447
H 1.326837826 0.879483660 -2.398469423
H 1.175577098 -2.902392315 -1.588991311
H -3.270924001 -2.651528753 -0.674546811
H -2.675355837 -0.863223681 2.107687155
H -3.646958486 1.412659719 -2.948706592
H -2.121299721 3.029943971 -0.319996830
H 0.374010777 1.418730955 -5.221464460

