17

C 3.064618462 -1.129187761 -0.737037881
C 1.263884529 0.606416987 0.649519656
C -0.096379868 2.726784582 -0.310253912
C -2.619716347 1.396341102 -0.295787473
O -3.068598092 -0.682469714 -1.989356454
C -2.467429423 -2.545143446 -0.103767885
C -1.292049536 -0.528628226 1.587072691
H 4.115508614 -2.297887711 0.599799129
H 4.415954035 -0.019565790 -1.824180067
H 2.062944430 -2.384112191 -2.029461809
H 3.130669303 2.426732149 1.077413838
H -0.092747002 4.524117556 0.656166465
H 2.869504069 3.648295089 -0.625274035
H -4.351706201 2.442116352 0.102730066
H -1.266075251 -4.055334462 -0.829233404
H -4.194053059 -3.367395219 0.686706877
H -1.703282192 -0.449189487 3.596791927

