11

O -1.567217414 3.091082640 -2.587293409
C -1.679211693 1.396611881 -1.244665088
C -2.229413013 -0.957530482 -0.049383665
C 0.474248767 -1.622196860 -0.668138863
C 2.210832942 -0.130509777 0.660017652
N 1.317154359 1.709924051 2.035368942
H -3.603284534 -1.969793140 -1.201358197
H -2.761043748 -0.824896577 1.939591008
H 0.925304775 -3.068090569 -2.027121403
H 4.231099968 -0.476385915 0.408700933
H 2.681529572 2.851784750 2.734283998

