12

O -3.264691287 -1.814274500 3.052045490
C -1.173059473 -1.804554543 1.725667605
C -0.883510968 0.714153959 0.610685331
C 1.826464084 1.624032124 0.490368452
C 0.548194261 0.853277486 -1.883703171
C 1.308111812 -1.407336209 -3.202030671
N 1.940008071 -3.121044096 -4.369992154
H -3.452317905 -3.460962816 3.804680395
H -2.352805817 2.125145692 0.871649214
H 3.236473047 0.354633658 1.246735453
H 2.149471853 3.617221623 0.794796868
H -0.079504142 2.338391345 -3.141647346

