11

N 3.414733690 0.524812906 -0.285899273
C 0.678298938 0.163220219 -0.087473230
C -0.989509864 1.910861634 -1.007742546
N -3.178553111 0.624329059 -0.330200274
C -2.666368772 -1.609993500 0.844960310
N -0.226083054 -1.971385650 1.034343182
H 4.264347204 -0.859739820 -1.320447244
H 4.272920533 0.606252147 1.436345830
H 3.605670710 2.221335246 -1.189077472
H -4.929530536 1.269371708 -0.673561564
H -4.104672509 -2.895103924 1.515195143

