16

C 2.704757670 3.250654477 0.378529453
C 0.695942630 2.037551973 -1.123220781
N 3.173472526 0.704687943 -0.851262187
C 1.927450217 -1.559136397 0.293191594
C -0.618799191 -0.244333727 0.062331426
C -2.785174965 -0.217743901 1.846015134
C -3.051194603 -1.417321182 -0.726344374
H 2.460072492 2.892683676 2.402653202
H 4.464099835 0.550761057 -2.242340969
H 0.091632366 2.757912982 -2.950370741
H 2.657039950 -1.953509975 2.179682337
H 2.113780047 -3.220054293 -0.914155032
H -3.719547893 1.571847432 2.179993594
H -2.711521189 -1.455519766 3.474146604
H -3.171153567 -3.458521516 -0.832427476
H -4.166809746 -0.428763230 -2.129853623

