12

C 3.539050003 1.196899218 1.400130759
O 3.171348039 -0.761975311 -0.042870195
C 1.050728732 -1.726342086 -0.769870889
C -1.307874122 -0.762551848 0.284388475
C -3.113174105 0.810596415 -1.135675285
O -3.557618773 -1.792992480 -0.696670250
H 5.492045330 1.628923850 1.761457449
H 1.965877325 2.362299045 1.970075843
H 1.195242098 -3.375244914 -1.956576263
H -1.274506906 -0.506028707 2.343474614
H -2.680821189 1.306714699 -3.078869396
H -4.354297034 2.091092392 -0.118546847

