12

C 3.452321042 0.985677159 1.341519826
O 3.350966375 -1.362435258 0.360510366
C 1.171766579 -1.295427989 -0.887365972
C -1.178353862 -0.545519807 0.341092391
C -3.330454456 0.592764453 -0.962702814
O -3.341542254 -2.015707967 -0.340497543
H 4.195770177 1.142786003 3.237118653
H 3.408441884 2.546824848 0.040187634
H 1.133115009 -2.325204024 -2.660654883
H -0.921350920 -0.127085424 2.348885372
H -3.181827609 1.009916185 -2.969584721
H -4.654629771 1.762698319 0.085343755

