15

C -3.592663669 -0.273424341 -0.242825725
C -1.278190909 1.181757901 0.518804522
O -0.688918178 0.803553047 3.119810596
C 1.532356805 0.549096945 1.783128337
C 2.492957487 -1.835877207 0.759814466
C 1.268026185 -0.672701720 -1.548984580
O 2.976202466 0.890747618 -2.725123343
H -3.328317761 -2.285403500 0.088126301
H -5.204066678 0.387722592 0.874282623
H -3.966659933 0.013410914 -2.245506279
H -1.308178028 3.178903183 0.011510681
H 2.778197189 2.177671839 1.776814970
H 4.538917607 -1.955728211 0.693522571
H 1.588900906 -3.545338804 1.441060526
H 2.213710749 1.419715503 -4.279564961

