13

O 0.429178875 -5.238206678 1.601938448
C 2.698318220 0.527501628 0.445032505
C 0.339308357 1.484641768 -0.956226609
C 0.523410616 -1.098945699 0.048255328
C -0.658039543 -3.250940998 0.381770975
C -1.283110697 3.321574784 0.236110791
C -2.630916168 4.851259308 1.220983683
H -0.744823703 -6.612411642 1.679463404
H 3.025365921 1.278924500 2.322074788
H 4.383603398 0.237708819 -0.683217800
H 0.546904390 1.720695697 -2.983454063
H -2.570101512 -3.528400263 -0.310124542
H -3.824951639 6.207900250 2.102100822

