17

C 4.147704596 -1.101711899 1.458311118
O 1.601927261 -0.360142890 1.219977593
C 0.822915294 -0.054190580 -1.330174610
C -1.926079391 0.795016606 -1.412351259
C -3.734465486 -1.138271542 -0.228737590
C -2.553988328 3.345349768 -0.217269693
O -1.119586932 3.868727163 1.707048133
H 4.469789782 -2.912807200 0.508265652
H 4.546957126 -1.311368244 3.465253893
H 5.423402616 0.315962227 0.649138158
H 2.038714967 1.353326325 -2.256620401
H 1.054749899 -1.849690368 -2.346671615
H -2.427601139 0.984882983 -3.408973805
H -3.637868374 -2.929527705 -1.246470835
H -3.255967329 -1.490216989 1.745004756
H -5.674222922 -0.447108634 -0.307528171
H 0.146014848 2.552429285 2.068180994

