13

O 3.009961421 0.340302485 1.884259865
C 1.574911906 0.603771333 -0.336681543
C 0.072973437 -1.798335511 -0.818089538
C -2.577194127 -1.162719061 0.196975414
C -2.784072178 1.678949342 0.342139186
N -0.467629265 2.469359646 -0.032064854
H 4.097827864 1.775171532 2.086394212
H 2.795873971 1.156805182 -1.913417243
H -0.050067538 4.329517925 0.031520934
H 0.977467962 -3.398224929 0.105205721
H -0.000419481 -2.177901592 -2.842454907
H -2.878751879 -1.861302546 2.121528624
H -4.107578379 -1.945520005 -0.938518023

