13

O 2.806904170 0.313775001 2.104106709
C 1.854668908 0.485440349 -0.318360478
C 0.089494481 -1.569639249 -0.942605709
C -2.536319181 -1.171338046 0.326155447
C -3.064360419 1.608862291 0.353181517
N -1.322169239 3.073095660 -0.002086843
H 4.131048834 1.524280682 2.341281152
H 3.252188028 0.986544014 -1.752239100
H 0.315871936 3.818253353 -0.625485628
H 0.833755084 -3.380529439 -0.283370366
H -0.144080997 -1.666943666 -2.988453957
H -2.521951215 -1.789487360 2.298639728
H -4.031750416 -2.222439772 -0.623968405

