12

N -2.831762894 0.617549515 -1.610674539
C -2.153159786 -1.198759956 -0.103128931
C 2.286488373 -0.369068085 1.141838551
O 3.740508565 -1.851195894 -0.450738911
C 1.635799751 2.001747143 0.445453310
N 0.480990271 3.747121511 -0.380416798
H -1.531990425 2.661276262 -1.041456923
H -2.418429826 0.206940658 -3.440889805
H -2.649788258 -1.053426619 1.880557268
H -1.505991761 -3.021997938 -0.789391156
H 2.204136830 -0.888441396 3.123320914
H 5.442185360 -1.929614728 0.173469243

