16

C 2.793517501 2.105496036 0.654558233
C 2.048051820 -0.619968705 0.554080796
C -0.653384864 -0.797963218 1.598873539
C -2.093638553 -2.370542578 -0.360306011
C -0.990658307 -0.193699328 -2.303060836
C -1.684392377 1.365233697 0.031588114
N 1.568856846 -0.582780463 -2.188086724
H 4.478130069 2.566589381 -0.409003535
H 2.650554429 3.123789774 2.440896458
H 3.370527742 -2.062022112 1.193988586
H -0.973680668 -0.973633632 3.617214556
H -1.403545022 -4.217851816 -0.931765030
H -4.124184120 -2.411647636 -0.044381220
H -1.822058736 0.145244690 -4.146669234
H 0.512031555 2.895908608 -0.078532426
H -3.600275580 2.039985033 0.373696346

