15

C -4.056701755 -0.442805180 -0.352294914
C -1.612552624 -1.513207341 0.472829337
C 0.677481877 2.091350378 -0.859426484
C 3.030503066 3.273794401 -1.079588327
N 4.974938443 4.256913022 -1.263128790
N 0.493896703 -0.252803215 0.184829652
C 2.854062078 -1.431788226 1.039767130
H -4.463403641 1.342562123 0.621765267
H -4.047117971 -0.022086325 -2.383235812
H -5.588578909 -1.758419393 0.032648364
H -1.472410553 -3.354407377 1.334761485
H -1.010667105 3.008804229 -1.516149002
H 4.132573370 -1.617725144 -0.559685043
H 2.432307105 -3.277709837 1.829203280
H 3.733245063 -0.232185641 2.459159112

