15

C -3.755713547 0.038322531 -0.084998294
C -1.310936631 -1.317731651 -0.438764114
C 1.157242011 1.490462502 -1.398542350
C 1.537041077 4.002009830 -0.574263014
N 1.799137926 6.056527651 0.111446749
N 0.929044807 -0.464361002 0.345705382
C 2.953875333 -1.959077354 1.408490718
H -3.463950435 1.893493690 0.753676163
H -4.762128901 0.276240278 -1.870203855
H -4.979550226 -1.092804807 1.147252333
H -1.432102922 -3.299302982 -1.038723794
H 1.266802096 1.060051753 -3.389360224
H 3.644691041 -3.360263260 0.050634512
H 2.295560891 -2.920178511 3.107743353
H 4.497659009 -0.688461450 1.896491117

