9

N 4.471168696 -0.593353613 2.107315710
C 2.576333319 -0.518087277 1.057306397
C 0.157784875 -0.438068638 -0.211866380
H 0.416117107 -0.556919183 -2.255300900
C -2.003093894 -2.074198751 0.814596682
H -1.673188493 -2.991917768 2.624796422
H -2.936306360 -3.347434080 -0.504845436
O -3.432352476 0.237518014 1.150517119
C -1.646249105 1.813028150 0.440164836

