9

O -3.150955210 2.705126885 0.058738697
C -1.355386788 1.313441066 0.101066824
N 1.193595372 1.887235806 -0.232964246
C 2.767123186 -0.148733313 -0.257994935
N 1.153413842 -2.056672675 0.012666910
N -1.326995240 -1.275967854 0.501256752
H 1.780808717 3.674375030 -0.481430785
H 1.664642641 -3.804588838 0.543058703
H -2.743645267 -2.308186851 -0.244405461

