12

C -2.469283206 -1.704409017 -1.290756756
C -1.125143974 -0.287340889 0.824052059
C 1.655251439 -0.295591584 0.678653337
C 3.913311207 0.367078563 0.483360214
C -1.135907722 2.527080631 0.676854412
C 0.653142242 4.013049138 0.509907975
H -1.842293904 -1.024694599 -3.129737006
H -2.112050041 -3.731549241 -1.162296708
H -4.497201525 -1.382735471 -1.130393935
H -1.753218054 -0.967329733 2.668829687
H 5.775125926 -0.431577693 0.400476864
H 3.140109279 2.837615829 0.401517366

