16

C -3.509651572 1.243190535 0.530970390
C -0.887647919 0.284093508 0.013724041
C -0.666955157 -2.513769495 -0.551580140
O 0.844593759 -3.863337022 1.206832375
C 1.117088733 1.801917147 0.063771303
C 3.799785646 1.084897437 -0.466347747
H -3.514696876 3.264125144 0.931597506
H -4.359690350 0.263339817 2.141988632
H -4.751667699 0.907512059 -1.087225183
H 0.460126561 -3.247718221 2.867785306
H 0.213648977 -2.816016940 -2.394781755
H -2.562357944 -3.348791281 -0.641622018
H 0.800943675 3.781388840 0.522737609
H 4.980009694 1.393306164 1.201437792
H 4.574664593 2.269223722 -1.971296701
H 3.997622585 -0.890590846 -1.004007881

