16

C -3.259605090 1.495650519 -0.240356023
C -1.400722867 -0.191208763 1.078432930
C -0.603916634 -2.740072210 0.077535614
O 1.652365998 -2.447496289 1.871659587
C 1.406293931 0.422612436 1.242067339
C 3.010092890 1.093102288 -1.027907946
H -3.468514256 3.282492678 0.774008520
H -5.129051562 0.620032955 -0.283554463
H -2.759559255 1.961899168 -2.208242638
H 0.207165516 -2.007348782 3.243482570
H 0.266884925 -2.928872536 -1.795866130
H -1.687492397 -4.434559428 0.524366232
H 2.069539877 1.483420041 2.884745466
H 5.014044871 0.752476433 -0.680171656
H 2.763195164 3.120063914 -1.337384576
H 2.455099375 0.130580037 -2.758829386

