12

C -2.527211324 -1.266129486 -1.133402587
C -0.101168964 -0.218183432 -0.132398237
C 1.820135883 -1.730541530 0.705517249
C 3.945811813 -0.605937148 1.877927506
C 0.039815018 2.467249275 -0.034503149
C -0.052045344 4.730886928 -0.092773855
H -2.974894794 -0.390960619 -2.946955175
H -2.426184770 -3.310028198 -1.346179135
H -4.072393209 -0.798152512 0.153771210
H 1.517467993 -3.764586964 0.515075242
H 4.992135575 -2.104094256 2.888562618
H -0.040294838 6.743039073 -0.103642067

