15

C -3.133774539 -1.535641621 -0.372745511
C -0.989500963 0.196398442 -1.091916523
N -0.298288960 2.188285334 0.947703793
C 2.513213839 1.496817897 0.701650094
C 1.692023318 -0.687133918 -0.895723115
N 2.611368558 -2.957516041 -1.038305446
O 4.826401397 -3.247444702 -0.178747682
H -4.946660034 -0.548608527 -0.290718698
H -2.751907981 -2.476681163 1.423159340
H -3.265143688 -3.011995164 -1.803471749
H -1.475206328 1.289446306 -2.789772196
H -0.779744160 4.008773254 0.567539274
H 3.387335855 1.033409279 2.512937788
H 3.510612195 3.081937801 -0.175310819
H -1.006460556 1.692418629 2.661187502

