15

C -3.141943314 -1.494264877 -0.789145264
C -0.938237682 0.263920417 -1.144343176
N 0.121765637 1.507555302 1.225626400
C 2.599785633 1.829854971 -0.092922426
C 1.844601128 -0.693580284 -1.282982914
N 1.960234603 -2.719263113 0.183770291
O 2.769787303 -2.160003259 2.470825657
H -4.836694452 -0.432024009 -0.278024766
H -2.754729191 -2.911221965 0.650657951
H -3.517963173 -2.472343221 -2.563901548
H -1.350032702 1.741612490 -2.531903836
H -0.782827419 2.975473523 2.065915439
H 4.212938906 1.912684407 1.170705044
H 2.565125051 3.384574473 -1.443982496
H 1.142457607 -0.210514715 2.537175472

