15

C -1.193766733 3.213951026 -0.102259166
C -0.569213911 0.491553575 0.571341762
C -0.564507813 -1.316957960 -1.684003414
C 2.087079918 0.077345545 1.702434386
C 3.042224035 -2.461154965 0.806336443
N 1.485087479 -3.070824700 -1.009353160
H -1.141056791 4.415192438 1.573864696
H -3.074572424 3.385555959 -0.936134361
H 0.172238918 3.964306241 -1.458796948
H -1.961458862 -0.194549289 1.937459567
H -0.108456522 -0.350815712 -3.457021622
H -2.344286119 -2.327113875 -1.939594806
H 1.733758448 -4.669369635 -2.015756949
H 2.140740732 0.220424893 3.757959392
H 3.444760625 1.480744699 0.999571881

