29

C     3.86635   0.26438  -0.86404
N     2.59664   0.42814  -0.17181
C     1.87872  -0.62904   0.21764
O     2.26245  -1.80019   0.20641
C     0.43873  -0.32468   0.63128
C    -0.13857  -1.36286   1.47327
N    -0.58966  -2.25170   2.07223
O     0.26481   0.98059   0.96690
N    -1.10394   1.41419   0.88039
C    -1.85039   0.87400   1.86237
N    -2.65853   0.48968   2.62555
C    -1.62763   0.70398  -0.97257
C    -1.14064   1.86761  -1.77919
C    -3.12094   0.59855  -0.78769
C    -0.85560  -0.52788  -0.93105
C     0.16671  -0.88944  -1.97013
O     0.78584  -0.11243  -2.67264
H     4.40350   1.21659  -0.90013
H     4.48928  -0.49328  -0.37930
H     3.67599  -0.06989  -1.91304
H     2.17416   1.34980  -0.15525
H    -0.10021   2.03689  -1.58523
H    -1.75731   2.74292  -1.57913
H    -1.21880   1.66446  -2.90070
H    -3.68037   0.46464  -1.75377
H    -3.50018   1.56770  -0.37525
H    -3.41516  -0.21736  -0.12963
H    -1.48453  -1.43926  -0.68360
H     0.39366  -1.98356  -1.99668
29

C     3.86637   0.26388  -0.86610
N     2.59956   0.42909  -0.16991
C     1.88230  -0.62726   0.22275
O     2.26253  -1.79922   0.20756
C     0.44912  -0.32125   0.64933
C    -0.13769  -1.36115   1.47617
N    -0.59112  -2.25237   2.06937
O     0.26404   0.97985   0.96362
N    -1.09289   1.42326   0.90102
C    -1.84686   0.87244   1.86647
N    -2.65977   0.48698   2.62321
C    -1.63554   0.69651  -0.99076
C    -1.14300   1.86569  -1.78391
C    -3.12469   0.60079  -0.78873
C    -0.87035  -0.53300  -0.95135
C     0.16507  -0.89041  -1.97144
O     0.78732  -0.11246  -2.67120
H     4.40378   1.21628  -0.90113
H     4.48943  -0.49367  -0.38045
H     3.67498  -0.06993  -1.91348
H     2.17565   1.35038  -0.15378
H    -0.10108   2.03507  -1.58475
H    -1.75762   2.74216  -1.57877
H    -1.21784   1.66731  -2.90260
H    -3.68495   0.46890  -1.75242
H    -3.49783   1.56799  -0.37234
H    -3.41614  -0.21759  -0.13101
H    -1.48753  -1.44058  -0.68755
H     0.39542  -1.98333  -1.99500
29

C     3.86640   0.26338  -0.86817
N     2.60248   0.43004  -0.16802
C     1.88587  -0.62548   0.22786
O     2.26261  -1.79824   0.20871
C     0.45951  -0.31782   0.66737
C    -0.13680  -1.35945   1.47908
N    -0.59259  -2.25304   2.06651
O     0.26326   0.97910   0.96034
N    -1.08185   1.43233   0.92166
C    -1.84333   0.87087   1.87057
N    -2.66101   0.48428   2.62086
C    -1.64345   0.68905  -1.00895
C    -1.14536   1.86377  -1.78862
C    -3.12844   0.60303  -0.78977
C    -0.88509  -0.53811  -0.97164
C     0.16344  -0.89138  -1.97276
O     0.78881  -0.11248  -2.66976
H     4.40406   1.21597  -0.90213
H     4.48959  -0.49407  -0.38159
H     3.67398  -0.06996  -1.91392
H     2.17714   1.35095  -0.15231
H    -0.10195   2.03324  -1.58426
H    -1.75792   2.74139  -1.57842
H    -1.21688   1.67016  -2.90450
H    -3.68952   0.47315  -1.75108
H    -3.49548   1.56828  -0.36943
H    -3.41712  -0.21782  -0.13239
H    -1.49053  -1.44191  -0.69149
H     0.39717  -1.98311  -1.99333
29

C     3.86643   0.26288  -0.87023
N     2.60540   0.43099  -0.16612
C     1.88944  -0.62370   0.23297
O     2.26270  -1.79726   0.20985
C     0.46989  -0.31439   0.68542
C    -0.13592  -1.35775   1.48199
N    -0.59406  -2.25371   2.06365
O     0.26248   0.97836   0.95705
N    -1.07081   1.44141   0.94229
C    -1.83980   0.86931   1.87467
N    -2.66225   0.48158   2.61851
C    -1.65136   0.68159  -1.02714
C    -1.14772   1.86185  -1.79333
C    -3.13219   0.60527  -0.79080
C    -0.89983  -0.54323  -0.99193
C     0.16181  -0.89234  -1.97407
O     0.79029  -0.11251  -2.66832
H     4.40435   1.21565  -0.90313
H     4.48974  -0.49446  -0.38274
H     3.67298  -0.07000  -1.91436
H     2.17863   1.35153  -0.15084
H    -0.10282   2.03142  -1.58377
H    -1.75822   2.74062  -1.57807
H    -1.21592   1.67301  -2.90640
H    -3.69409   0.47741  -1.74973
H    -3.49313   1.56857  -0.36652
H    -3.41810  -0.21805  -0.13378
H    -1.49354  -1.44323  -0.69544
H     0.39893  -1.98288  -1.99165
29

C     3.86646   0.26238  -0.87229
N     2.60832   0.43194  -0.16423
C     1.89302  -0.62191   0.23808
O     2.26278  -1.79629   0.21100
C     0.48028  -0.31097   0.70346
C    -0.13503  -1.35605   1.48489
N    -0.59553  -2.25438   2.06080
O     0.26171   0.97762   0.95377
N    -1.05977   1.45048   0.96292
C    -1.83628   0.86774   1.87877
N    -2.66348   0.47888   2.61617
C    -1.65927   0.67412  -1.04533
C    -1.15008   1.85992  -1.79805
C    -3.13593   0.60751  -0.79184
C    -0.91457  -0.54834  -1.01222
C     0.16018  -0.89331  -1.97538
O     0.79178  -0.11253  -2.66689
H     4.40463   1.21534  -0.90412
H     4.48990  -0.49486  -0.38389
H     3.67198  -0.07003  -1.91480
H     2.18012   1.35211  -0.14938
H    -0.10369   2.02959  -1.58329
H    -1.75852   2.73985  -1.57772
H    -1.21496   1.67586  -2.90830
H    -3.69867   0.48167  -1.74838
H    -3.49078   1.56885  -0.36361
H    -3.41908  -0.21827  -0.13516
H    -1.49654  -1.44455  -0.69939
H     0.40068  -1.98265  -1.98997
29

C     3.86648   0.26188  -0.87435
N     2.61125   0.43289  -0.16233
C     1.89659  -0.62013   0.24319
O     2.26286  -1.79531   0.21214
C     0.49067  -0.30754   0.72151
C    -0.13415  -1.35435   1.48780
N    -0.59699  -2.25505   2.05794
O     0.26093   0.97687   0.95049
N    -1.04873   1.45955   0.98355
C    -1.83275   0.86618   1.88287
N    -2.66472   0.47618   2.61382
C    -1.66718   0.66666  -1.06352
C    -1.15244   1.85800  -1.80276
C    -3.13968   0.60975  -0.79288
C    -0.92931  -0.55346  -1.03251
C     0.15855  -0.89428  -1.97670
O     0.79326  -0.11256  -2.66545
H     4.40491   1.21503  -0.90512
H     4.49005  -0.49525  -0.38504
H     3.67098  -0.07007  -1.91524
H     2.18161   1.35269  -0.14791
H    -0.10456   2.02776  -1.58280
H    -1.75882   2.73909  -1.57736
H    -1.21400   1.67871  -2.91020
H    -3.70324   0.48593  -1.74703
H    -3.48843   1.56914  -0.36069
H    -3.42006  -0.21850  -0.13654
H    -1.49954  -1.44588  -0.70333
H     0.40244  -1.98243  -1.98830
29

C     3.86651   0.26138  -0.87641
N     2.61417   0.43384  -0.16044
C     1.90016  -0.61835   0.24830
O     2.26295  -1.79434   0.21329
C     0.50105  -0.30411   0.73956
C    -0.13327  -1.35265   1.49071
N    -0.59846  -2.25572   2.05508
O     0.26015   0.97613   0.94721
N    -1.03769   1.46862   1.00418
C    -1.82922   0.86461   1.88697
N    -2.66596   0.47348   2.61148
C    -1.67509   0.65920  -1.08171
C    -1.15480   1.85608  -1.80747
C    -3.14343   0.61199  -0.79392
C    -0.94405  -0.55857  -1.05281
C     0.15692  -0.89525  -1.97801
O     0.79475  -0.11258  -2.66401
H     4.40520   1.21471  -0.90612
H     4.49021  -0.49565  -0.38619
H     3.66998  -0.07011  -1.91568
H     2.18310   1.35327  -0.14644
H    -0.10543   2.02594  -1.58231
H    -1.75912   2.73832  -1.57701
H    -1.21304   1.68157  -2.91210
H    -3.70782   0.49018  -1.74569
H    -3.48608   1.56943  -0.35778
H    -3.42103  -0.21873  -0.13792
H    -1.50254  -1.44720  -0.70728
H     0.40419  -1.98220  -1.98662
29

C     3.86654   0.26088  -0.87848
N     2.61709   0.43479  -0.15854
C     1.90374  -0.61656   0.25341
O     2.26303  -1.79336   0.21443
C     0.51144  -0.30068   0.75760
C    -0.13238  -1.35095   1.49362
N    -0.59993  -2.25639   2.05222
O     0.25938   0.97538   0.94392
N    -1.02665   1.47770   1.02481
C    -1.82569   0.86305   1.89108
N    -2.66719   0.47078   2.60913
C    -1.68299   0.65174  -1.09991
C    -1.15716   1.85416  -1.81219
C    -3.14718   0.61424  -0.79495
C    -0.95879  -0.56369  -1.07310
C     0.15529  -0.89621  -1.97933
O     0.79623  -0.11261  -2.66257
H     4.40548   1.21440  -0.90712
H     4.49036  -0.49604  -0.38734
H     3.66897  -0.07014  -1.91612
H     2.18459   1.35385  -0.14497
H    -0.10630   2.02411  -1.58182
H    -1.75942   2.73755  -1.57666
H    -1.21208   1.68442  -2.91399
H    -3.71239   0.49444  -1.74434
H    -3.48374   1.56972  -0.35487
H    -3.42201  -0.21896  -0.13931
H    -1.50555  -1.44852  -0.71122
H     0.40595  -1.98197  -1.98494
29

C     3.86657   0.26038  -0.88054
N     2.62001   0.43574  -0.15665
C     1.90731  -0.61478   0.25852
O     2.26311  -1.79238   0.21558
C     0.52183  -0.29725   0.77565
C    -0.13150  -1.34925   1.49652
N    -0.60140  -2.25706   2.04937
O     0.25860   0.97464   0.94064
N    -1.01561   1.48677   1.04544
C    -1.82216   0.86148   1.89518
N    -2.66843   0.46808   2.60679
C    -1.69090   0.64427  -1.11810
C    -1.15952   1.85223  -1.81690
C    -3.15092   0.61648  -0.79599
C    -0.97353  -0.56881  -1.09339
C     0.15365  -0.89718  -1.98064
O     0.79772  -0.11263  -2.66114
H     4.40576   1.21409  -0.90812
H     4.49052  -0.49644  -0.38849
H     3.66797  -0.07018  -1.91656
H     2.18608   1.35443  -0.14351
H    -0.10717   2.02229  -1.58134
H    -1.75972   2.73678  -1.57631
H    -1.21112   1.68727  -2.91589
H    -3.71697   0.49870  -1.74299
H    -3.48139   1.57000  -0.35196
H    -3.42299  -0.21919  -0.14069
H    -1.50855  -1.44985  -0.71517
H     0.40770  -1.98174  -1.98327
29

C     3.86659   0.25988  -0.88260
N     2.62293   0.43669  -0.15475
C     1.91088  -0.61300   0.26363
O     2.26319  -1.79141   0.21673
C     0.53221  -0.29382   0.79369
C    -0.13062  -1.34755   1.49943
N    -0.60286  -2.25774   2.04651
O     0.25782   0.97390   0.93736
N    -1.00457   1.49584   1.06607
C    -1.81863   0.85992   1.89928
N    -2.66967   0.46538   2.60444
C    -1.69881   0.63681  -1.13629
C    -1.16189   1.85031  -1.82161
C    -3.15467   0.61872  -0.79703
C    -0.98827  -0.57392  -1.11368
C     0.15202  -0.89815  -1.98195
O     0.79920  -0.11266  -2.65970
H     4.40605   1.21377  -0.90911
H     4.49067  -0.49683  -0.38964
H     3.66697  -0.07022  -1.91700
H     2.18757   1.35501  -0.14204
H    -0.10804   2.02046  -1.58085
H    -1.76002   2.73602  -1.57596
H    -1.21016   1.69012  -2.91779
H    -3.72154   0.50296  -1.74164
H    -3.47904   1.57029  -0.34905
H    -3.42397  -0.21941  -0.14207
H    -1.51155  -1.45117  -0.71911
H     0.40946  -1.98152  -1.98159
29

C     3.86662   0.25938  -0.88466
N     2.62586   0.43764  -0.15286
C     1.91446  -0.61121   0.26875
O     2.26328  -1.79043   0.21787
C     0.54260  -0.29039   0.81174
C    -0.12973  -1.34585   1.50234
N    -0.60433  -2.25841   2.04365
O     0.25705   0.97315   0.93408
N    -0.99352   1.50491   1.08671
C    -1.81510   0.85835   1.90338
N    -2.67091   0.46268   2.60210
C    -1.70672   0.62935  -1.15448
C    -1.16425   1.84839  -1.82633
C    -3.15842   0.62096  -0.79806
C    -1.00302  -0.57904  -1.13397
C     0.15039  -0.89912  -1.98327
O     0.80069  -0.11268  -2.65826
H     4.40633   1.21346  -0.91011
H     4.49083  -0.49722  -0.39078
H     3.66597  -0.07025  -1.91744
H     2.18906   1.35559  -0.14057
H    -0.10891   2.01863  -1.58036
H    -1.76032   2.73525  -1.57560
H    -1.20920   1.69297  -2.91969
H    -3.72611   0.50721  -1.74030
H    -3.47669   1.57058  -0.34614
H    -3.42495  -0.21964  -0.14345
H    -1.51455  -1.45249  -0.72306
H     0.41121  -1.98129  -1.97991
29

C     3.86665   0.25888  -0.88672
N     2.62878   0.43859  -0.15096
C     1.91803  -0.60943   0.27386
O     2.26336  -1.78946   0.21902
C     0.55299  -0.28697   0.82979
C    -0.12885  -1.34415   1.50525
N    -0.60580  -2.25908   2.04079
O     0.25627   0.97241   0.93079
N    -0.98248   1.51398   1.10734
C    -1.81157   0.85679   1.90748
N    -2.67214   0.45998   2.59975
C    -1.71463   0.62189  -1.17267
C    -1.16661   1.84647  -1.83104
C    -3.16217   0.62320  -0.79910
C    -1.01776  -0.58415  -1.15426
C     0.14876  -0.90008  -1.98458
O     0.80217  -0.11271  -2.65683
H     4.40661   1.21315  -0.91111
H     4.49098  -0.49762  -0.39193
H     3.66497  -0.07029  -1.91788
H     2.19055   1.35616  -0.13910
H    -0.10978   2.01681  -1.57987
H    -1.76062   2.73448  -1.57525
H    -1.20824   1.69582  -2.92159
H    -3.73069   0.51147  -1.73895
H    -3.47434   1.57087  -0.34323
H    -3.42593  -0.21987  -0.14484
H    -1.51756  -1.45381  -0.72701
H     0.41297  -1.98106  -1.97824
29

C     3.86668   0.25838  -0.88878
N     2.63170   0.43954  -0.14907
C     1.92160  -0.60765   0.27897
O     2.26344  -1.78848   0.22016
C     0.56337  -0.28354   0.84783
C    -0.12797  -1.34245   1.50815
N    -0.60727  -2.25975   2.03793
O     0.25549   0.97166   0.92751
N    -0.97144   1.52306   1.12797
C    -1.80804   0.85522   1.91158
N    -2.67338   0.45728   2.59741
C    -1.72254   0.61442  -1.19086
C    -1.16897   1.84454  -1.83575
C    -3.16591   0.62544  -0.80014
C    -1.03250  -0.58927  -1.17456
C     0.14713  -0.90105  -1.98590
O     0.80366  -0.11273  -2.65539
H     4.40690   1.21284  -0.91211
H     4.49114  -0.49801  -0.39308
H     3.66396  -0.07032  -1.91832
H     2.19204   1.35674  -0.13764
H    -0.11065   2.01498  -1.57939
H    -1.76092   2.73371  -1.57490
H    -1.20728   1.69867  -2.92349
H    -3.73526   0.51573  -1.73760
H    -3.47199   1.57115  -0.34032
H    -3.42691  -0.22010  -0.14622
H    -1.52056  -1.45514  -0.73095
H     0.41473  -1.98084  -1.97656
29

C     3.86670   0.25788  -0.89085
N     2.63462   0.44049  -0.14717
C     1.92518  -0.60586   0.28408
O     2.26353  -1.78750   0.22131
C     0.57376  -0.28011   0.86588
C    -0.12708  -1.34075   1.51106
N    -0.60873  -2.26042   2.03508
O     0.25472   0.97092   0.92423
N    -0.96040   1.53213   1.14860
C    -1.80451   0.85366   1.91568
N    -2.67462   0.45458   2.59506
C    -1.73045   0.60696  -1.20905
C    -1.17133   1.84262  -1.84047
C    -3.16966   0.62768  -0.80118
C    -1.04724  -0.59438  -1.19485
C     0.14550  -0.90202  -1.98721
O     0.80514  -0.11275  -2.65395
H     4.40718   1.21252  -0.91311
H     4.49129  -0.49841  -0.39423
H     3.66296  -0.07036  -1.91876
H     2.19353   1.35732  -0.13617
H    -0.11152   2.01316  -1.57890
H    -1.76122   2.73295  -1.57455
H    -1.20632   1.70152  -2.92539
H    -3.73984   0.51999  -1.73625
H    -3.46965   1.57144  -0.33741
H    -3.42789  -0.22033  -0.14760
H    -1.52356  -1.45646  -0.73490
H     0.41648  -1.98061  -1.97488
29

C     3.86673   0.25738  -0.89291
N     2.63754   0.44144  -0.14528
C     1.92875  -0.60408   0.28919
O     2.26361  -1.78653   0.22245
C     0.58415  -0.27668   0.88392
C    -0.12620  -1.33905   1.51397
N    -0.61020  -2.26109   2.03222
O     0.25394   0.97017   0.92095
N    -0.94936   1.54120   1.16923
C    -1.80098   0.85209   1.91978
N    -2.67585   0.45187   2.59272
C    -1.73836   0.59950  -1.22724
C    -1.17369   1.84070  -1.84518
C    -3.17341   0.62992  -0.80221
C    -1.06198  -0.59950  -1.21514
C     0.14387  -0.90299  -1.98852
O     0.80663  -0.11278  -2.65251
H     4.40747   1.21221  -0.91410
H     4.49145  -0.49880  -0.39538
H     3.66196  -0.07040  -1.91920
H     2.19502   1.35790  -0.13470
H    -0.11239   2.01133  -1.57841
H    -1.76152   2.73218  -1.57419
H    -1.20536   1.70437  -2.92728
H    -3.74441   0.52424  -1.73491
H    -3.46730   1.57173  -0.33450
H    -3.42886  -0.22055  -0.14899
H    -1.52656  -1.45778  -0.73884
H     0.41824  -1.98038  -1.97321
29

C     3.86676   0.25688  -0.89497
N     2.64047   0.44239  -0.14338
C     1.93232  -0.60230   0.29430
O     2.26369  -1.78555   0.22360
C     0.59454  -0.27325   0.90197
C    -0.12531  -1.33735   1.51688
N    -0.61167  -2.26176   2.02936
O     0.25316   0.96943   0.91766
N    -0.93832   1.55027   1.18986
C    -1.79745   0.85053   1.92388
N    -2.67709   0.44917   2.59037
C    -1.74626   0.59203  -1.24543
C    -1.17605   1.83878  -1.84990
C    -3.17716   0.63216  -0.80325
C    -1.07672  -0.60462  -1.23543
C     0.14224  -0.90395  -1.98984
O     0.80811  -0.11280  -2.65108
H     4.40775   1.21190  -0.91510
H     4.49161  -0.49920  -0.39653
H     3.66096  -0.07043  -1.91964
H     2.19650   1.35848  -0.13324
H    -0.11326   2.00951  -1.57792
H    -1.76182   2.73141  -1.57384
H    -1.20440   1.70722  -2.92918
H    -3.74898   0.52850  -1.73356
H    -3.46495   1.57202  -0.33159
H    -3.42984  -0.22078  -0.15037
H    -1.52957  -1.45911  -0.74279
H     0.41999  -1.98016  -1.97153
29

C     3.86679   0.25638  -0.89703
N     2.64339   0.44334  -0.14148
C     1.93590  -0.60052   0.29941
O     2.26378  -1.78457   0.22474
C     0.60492  -0.26982   0.92002
C    -0.12443  -1.33565   1.51978
N    -0.61314  -2.26243   2.02650
O     0.25239   0.96869   0.91438
N    -0.92728   1.55935   1.21049
C    -1.79392   0.84896   1.92798
N    -2.67833   0.44647   2.58803
C    -1.75417   0.58457  -1.26362
C    -1.17841   1.83685  -1.85461
C    -3.18090   0.63440  -0.80429
C    -1.09146  -0.60973  -1.25572
C     0.14060  -0.90492  -1.99115
O     0.80959  -0.11283  -2.64964
H     4.40803   1.21158  -0.91610
H     4.49176  -0.49959  -0.39768
H     3.65996  -0.07047  -1.92008
H     2.19799   1.35906  -0.13177
H    -0.11413   2.00768  -1.57744
H    -1.76212   2.73064  -1.57349
H    -1.20344   1.71007  -2.93108
H    -3.75356   0.53276  -1.73221
H    -3.46260   1.57230  -0.32868
H    -3.43082  -0.22101  -0.15175
H    -1.53257  -1.46043  -0.74673
H     0.42175  -1.97993  -1.96985
29

C     3.86681   0.25588  -0.89909
N     2.64631   0.44429  -0.13959
C     1.93947  -0.59873   0.30452
O     2.26386  -1.78360   0.22589
C     0.61531  -0.26640   0.93806
C    -0.12355  -1.33395   1.52269
N    -0.61460  -2.26310   2.02365
O     0.25161   0.96794   0.91110
N    -0.91624   1.56842   1.23113
C    -1.79039   0.84740   1.93208
N    -2.67957   0.44377   2.58568
C    -1.76208   0.57711  -1.28181
C    -1.18077   1.83493  -1.85932
C    -3.18465   0.63664  -0.80533
C    -1.10620  -0.61485  -1.27602
C     0.13897  -0.90589  -1.99247
O     0.81108  -0.11285  -2.64820
H     4.40832   1.21127  -0.91710
H     4.49192  -0.49999  -0.39883
H     3.65896  -0.07050  -1.92052
H     2.19948   1.35964  -0.13030
H    -0.11500   2.00585  -1.57695
H    -1.76242   2.72988  -1.57314
H    -1.20248   1.71293  -2.93298
H    -3.75813   0.53702  -1.73087
H    -3.46025   1.57259  -0.32577
H    -3.43180  -0.22124  -0.15313
H    -1.53557  -1.46175  -0.75068
H     0.42350  -1.97970  -1.96818
29

C     3.86684   0.25538  -0.90116
N     2.64923   0.44524  -0.13769
C     1.94304  -0.59695   0.30963
O     2.26394  -1.78262   0.22704
C     0.62570  -0.26297   0.95611
C    -0.12266  -1.33225   1.52560
N    -0.61607  -2.26377   2.02079
O     0.25083   0.96720   0.90782
N    -0.90520   1.57749   1.25176
C    -1.78686   0.84583   1.93618
N    -2.68080   0.44107   2.58333
C    -1.76999   0.56965  -1.30000
C    -1.18313   1.83301  -1.86404
C    -3.18840   0.63889  -0.80636
C    -1.12094  -0.61996  -1.29631
C     0.13734  -0.90686  -1.99378
O     0.81256  -0.11288  -2.64676
H     4.40860   1.21096  -0.91810
H     4.49207  -0.50038  -0.39998
H     3.65795  -0.07054  -1.92096
H     2.20097   1.36022  -0.12883
H    -0.11587   2.00403  -1.57646
H    -1.76272   2.72911  -1.57278
H    -1.20152   1.71578  -2.93488
H    -3.76271   0.54127  -1.72952
H    -3.45790   1.57288  -0.32286
H    -3.43278  -0.22147  -0.15452
H    -1.53857  -1.46308  -0.75463
H     0.42526  -1.97947  -1.96650
29

C     3.86687   0.25488  -0.90322
N     2.65216   0.44619  -0.13580
C     1.94662  -0.59517   0.31474
O     2.26402  -1.78165   0.22818
C     0.63608  -0.25954   0.97415
C    -0.12178  -1.33055   1.52851
N    -0.61754  -2.26445   2.01793
O     0.25005   0.96645   0.90453
N    -0.89415   1.58656   1.27239
C    -1.78333   0.84427   1.94028
N    -2.68204   0.43837   2.58099
C    -1.77790   0.56218  -1.31819
C    -1.18550   1.83109  -1.86875
C    -3.19215   0.64113  -0.80740
C    -1.13569  -0.62508  -1.31660
C     0.13571  -0.90782  -1.99509
O     0.81405  -0.11290  -2.64533
H     4.40888   1.21064  -0.91909
H     4.49223  -0.50078  -0.40112
H     3.65695  -0.07058  -1.92141
H     2.20246   1.36080  -0.12737
H    -0.11674   2.00220  -1.57597
H    -1.76302   2.72834  -1.57243
H    -1.20056   1.71863  -2.93678
H    -3.76728   0.54553  -1.72817
H    -3.45555   1.57317  -0.31995
H    -3.43376  -0.22169  -0.15590
H    -1.54158  -1.46440  -0.75857
H     0.42701  -1.97925  -1.96482
29

C     3.86690   0.25437  -0.90528
N     2.65508   0.44714  -0.13390
C     1.95019  -0.59338   0.31985
O     2.26411  -1.78067   0.22933
C     0.64647  -0.25611   0.99220
C    -0.12090  -1.32885   1.53141
N    -0.61901  -2.26512   2.01507
O     0.24928   0.96571   0.90125
N    -0.88311   1.59563   1.29302
C    -1.77980   0.84270   1.94438
N    -2.68328   0.43567   2.57864
C    -1.78581   0.55472  -1.33638
C    -1.18786   1.82917  -1.87346
C    -3.19590   0.64337  -0.80844
C    -1.15043  -0.63019  -1.33689
C     0.13408  -0.90879  -1.99641
O     0.81553  -0.11293  -2.64389
H     4.40917   1.21033  -0.92009
H     4.49238  -0.50117  -0.40227
H     3.65595  -0.07061  -1.92185
H     2.20395   1.36137  -0.12590
H    -0.11762   2.00038  -1.57549
H    -1.76332   2.72757  -1.57208
H    -1.19960   1.72148  -2.93867
H    -3.77186   0.54979  -1.72682
H    -3.45321   1.57345  -0.31704
H    -3.43474  -0.22192  -0.15728
H    -1.54458  -1.46572  -0.76252
H     0.42877  -1.97902  -1.96315
29

C     3.86687   0.25488  -0.90322
N     2.65216   0.44619  -0.13580
C     1.94662  -0.59517   0.31474
O     2.26402  -1.78165   0.22818
C     0.63608  -0.25954   0.97415
C    -0.12178  -1.33055   1.52851
N    -0.61754  -2.26445   2.01793
O     0.25005   0.96645   0.90453
N    -0.89415   1.58656   1.27239
C    -1.78333   0.84427   1.94028
N    -2.68204   0.43837   2.58099
C    -1.77790   0.56218  -1.31819
C    -1.18550   1.83109  -1.86875
C    -3.19215   0.64113  -0.80740
C    -1.13569  -0.62508  -1.31660
C     0.13571  -0.90782  -1.99509
O     0.81405  -0.11290  -2.64533
H     4.40888   1.21064  -0.91909
H     4.49223  -0.50078  -0.40112
H     3.65695  -0.07058  -1.92141
H     2.20246   1.36080  -0.12737
H    -0.11674   2.00220  -1.57597
H    -1.76302   2.72834  -1.57243
H    -1.20056   1.71863  -2.93678
H    -3.76728   0.54553  -1.72817
H    -3.45555   1.57317  -0.31995
H    -3.43376  -0.22169  -0.15590
H    -1.54158  -1.46440  -0.75857
H     0.42701  -1.97925  -1.96482
29

C     3.86684   0.25538  -0.90116
N     2.64923   0.44524  -0.13769
C     1.94304  -0.59695   0.30963
O     2.26394  -1.78262   0.22704
C     0.62570  -0.26297   0.95611
C    -0.12266  -1.33225   1.52560
N    -0.61607  -2.26377   2.02079
O     0.25083   0.96720   0.90782
N    -0.90520   1.57749   1.25176
C    -1.78686   0.84583   1.93618
N    -2.68080   0.44107   2.58333
C    -1.76999   0.56965  -1.30000
C    -1.18313   1.83301  -1.86404
C    -3.18840   0.63889  -0.80636
C    -1.12094  -0.61996  -1.29631
C     0.13734  -0.90686  -1.99378
O     0.81256  -0.11288  -2.64676
H     4.40860   1.21096  -0.91810
H     4.49207  -0.50038  -0.39998
H     3.65795  -0.07054  -1.92096
H     2.20097   1.36022  -0.12883
H    -0.11587   2.00403  -1.57646
H    -1.76272   2.72911  -1.57278
H    -1.20152   1.71578  -2.93488
H    -3.76271   0.54127  -1.72952
H    -3.45790   1.57288  -0.32286
H    -3.43278  -0.22147  -0.15452
H    -1.53857  -1.46308  -0.75463
H     0.42526  -1.97947  -1.96650
29

C     3.86681   0.25588  -0.89909
N     2.64631   0.44429  -0.13959
C     1.93947  -0.59873   0.30452
O     2.26386  -1.78360   0.22589
C     0.61531  -0.26640   0.93806
C    -0.12355  -1.33395   1.52269
N    -0.61460  -2.26310   2.02365
O     0.25161   0.96794   0.91110
N    -0.91624   1.56842   1.23113
C    -1.79039   0.84740   1.93208
N    -2.67957   0.44377   2.58568
C    -1.76208   0.57711  -1.28181
C    -1.18077   1.83493  -1.85932
C    -3.18465   0.63664  -0.80533
C    -1.10620  -0.61485  -1.27602
C     0.13897  -0.90589  -1.99247
O     0.81108  -0.11285  -2.64820
H     4.40832   1.21127  -0.91710
H     4.49192  -0.49999  -0.39883
H     3.65896  -0.07050  -1.92052
H     2.19948   1.35964  -0.13030
H    -0.11500   2.00585  -1.57695
H    -1.76242   2.72988  -1.57314
H    -1.20248   1.71293  -2.93298
H    -3.75813   0.53702  -1.73087
H    -3.46025   1.57259  -0.32577
H    -3.43180  -0.22124  -0.15313
H    -1.53557  -1.46175  -0.75068
H     0.42350  -1.97970  -1.96818
29

C     3.86679   0.25638  -0.89703
N     2.64339   0.44334  -0.14148
C     1.93590  -0.60052   0.29941
O     2.26378  -1.78457   0.22474
C     0.60492  -0.26982   0.92002
C    -0.12443  -1.33565   1.51978
N    -0.61314  -2.26243   2.02650
O     0.25239   0.96869   0.91438
N    -0.92728   1.55935   1.21049
C    -1.79392   0.84896   1.92798
N    -2.67833   0.44647   2.58803
C    -1.75417   0.58457  -1.26362
C    -1.17841   1.83685  -1.85461
C    -3.18090   0.63440  -0.80429
C    -1.09146  -0.60973  -1.25572
C     0.14060  -0.90492  -1.99115
O     0.80959  -0.11283  -2.64964
H     4.40803   1.21158  -0.91610
H     4.49176  -0.49959  -0.39768
H     3.65996  -0.07047  -1.92008
H     2.19799   1.35906  -0.13177
H    -0.11413   2.00768  -1.57744
H    -1.76212   2.73064  -1.57349
H    -1.20344   1.71007  -2.93108
H    -3.75356   0.53276  -1.73221
H    -3.46260   1.57230  -0.32868
H    -3.43082  -0.22101  -0.15175
H    -1.53257  -1.46043  -0.74673
H     0.42175  -1.97993  -1.96985
29

C     3.86676   0.25688  -0.89497
N     2.64047   0.44239  -0.14338
C     1.93232  -0.60230   0.29430
O     2.26369  -1.78555   0.22360
C     0.59454  -0.27325   0.90197
C    -0.12531  -1.33735   1.51688
N    -0.61167  -2.26176   2.02936
O     0.25316   0.96943   0.91766
N    -0.93832   1.55027   1.18986
C    -1.79745   0.85053   1.92388
N    -2.67709   0.44917   2.59037
C    -1.74626   0.59203  -1.24543
C    -1.17605   1.83878  -1.84990
C    -3.17716   0.63216  -0.80325
C    -1.07672  -0.60462  -1.23543
C     0.14224  -0.90395  -1.98984
O     0.80811  -0.11280  -2.65108
H     4.40775   1.21190  -0.91510
H     4.49161  -0.49920  -0.39653
H     3.66096  -0.07043  -1.91964
H     2.19650   1.35848  -0.13324
H    -0.11326   2.00951  -1.57792
H    -1.76182   2.73141  -1.57384
H    -1.20440   1.70722  -2.92918
H    -3.74898   0.52850  -1.73356
H    -3.46495   1.57202  -0.33159
H    -3.42984  -0.22078  -0.15037
H    -1.52957  -1.45911  -0.74279
H     0.41999  -1.98016  -1.97153
29

C     3.86673   0.25738  -0.89291
N     2.63754   0.44144  -0.14528
C     1.92875  -0.60408   0.28919
O     2.26361  -1.78653   0.22245
C     0.58415  -0.27668   0.88392
C    -0.12620  -1.33905   1.51397
N    -0.61020  -2.26109   2.03222
O     0.25394   0.97017   0.92095
N    -0.94936   1.54120   1.16923
C    -1.80098   0.85209   1.91978
N    -2.67585   0.45187   2.59272
C    -1.73836   0.59950  -1.22724
C    -1.17369   1.84070  -1.84518
C    -3.17341   0.62992  -0.80221
C    -1.06198  -0.59950  -1.21514
C     0.14387  -0.90299  -1.98852
O     0.80663  -0.11278  -2.65251
H     4.40747   1.21221  -0.91410
H     4.49145  -0.49880  -0.39538
H     3.66196  -0.07040  -1.91920
H     2.19502   1.35790  -0.13470
H    -0.11239   2.01133  -1.57841
H    -1.76152   2.73218  -1.57419
H    -1.20536   1.70437  -2.92728
H    -3.74441   0.52424  -1.73491
H    -3.46730   1.57173  -0.33450
H    -3.42886  -0.22055  -0.14899
H    -1.52656  -1.45778  -0.73884
H     0.41824  -1.98038  -1.97321
29

C     3.86670   0.25788  -0.89085
N     2.63462   0.44049  -0.14717
C     1.92518  -0.60586   0.28408
O     2.26353  -1.78750   0.22131
C     0.57376  -0.28011   0.86588
C    -0.12708  -1.34075   1.51106
N    -0.60873  -2.26042   2.03508
O     0.25472   0.97092   0.92423
N    -0.96040   1.53213   1.14860
C    -1.80451   0.85366   1.91568
N    -2.67462   0.45458   2.59506
C    -1.73045   0.60696  -1.20905
C    -1.17133   1.84262  -1.84047
C    -3.16966   0.62768  -0.80118
C    -1.04724  -0.59438  -1.19485
C     0.14550  -0.90202  -1.98721
O     0.80514  -0.11275  -2.65395
H     4.40718   1.21252  -0.91311
H     4.49129  -0.49841  -0.39423
H     3.66296  -0.07036  -1.91876
H     2.19353   1.35732  -0.13617
H    -0.11152   2.01316  -1.57890
H    -1.76122   2.73295  -1.57455
H    -1.20632   1.70152  -2.92539
H    -3.73984   0.51999  -1.73625
H    -3.46965   1.57144  -0.33741
H    -3.42789  -0.22033  -0.14760
H    -1.52356  -1.45646  -0.73490
H     0.41648  -1.98061  -1.97488
29

C     3.86668   0.25838  -0.88878
N     2.63170   0.43954  -0.14907
C     1.92160  -0.60765   0.27897
O     2.26344  -1.78848   0.22016
C     0.56337  -0.28354   0.84783
C    -0.12797  -1.34245   1.50815
N    -0.60727  -2.25975   2.03793
O     0.25549   0.97166   0.92751
N    -0.97144   1.52306   1.12797
C    -1.80804   0.85522   1.91158
N    -2.67338   0.45728   2.59741
C    -1.72254   0.61442  -1.19086
C    -1.16897   1.84454  -1.83575
C    -3.16591   0.62544  -0.80014
C    -1.03250  -0.58927  -1.17456
C     0.14713  -0.90105  -1.98590
O     0.80366  -0.11273  -2.65539
H     4.40690   1.21284  -0.91211
H     4.49114  -0.49801  -0.39308
H     3.66396  -0.07032  -1.91832
H     2.19204   1.35674  -0.13764
H    -0.11065   2.01498  -1.57939
H    -1.76092   2.73371  -1.57490
H    -1.20728   1.69867  -2.92349
H    -3.73526   0.51573  -1.73760
H    -3.47199   1.57115  -0.34032
H    -3.42691  -0.22010  -0.14622
H    -1.52056  -1.45514  -0.73095
H     0.41473  -1.98084  -1.97656
29

C     3.86665   0.25888  -0.88672
N     2.62878   0.43859  -0.15096
C     1.91803  -0.60943   0.27386
O     2.26336  -1.78946   0.21902
C     0.55299  -0.28697   0.82979
C    -0.12885  -1.34415   1.50525
N    -0.60580  -2.25908   2.04079
O     0.25627   0.97241   0.93079
N    -0.98248   1.51398   1.10734
C    -1.81157   0.85679   1.90748
N    -2.67214   0.45998   2.59975
C    -1.71463   0.62189  -1.17267
C    -1.16661   1.84647  -1.83104
C    -3.16217   0.62320  -0.79910
C    -1.01776  -0.58415  -1.15426
C     0.14876  -0.90008  -1.98458
O     0.80217  -0.11271  -2.65683
H     4.40661   1.21315  -0.91111
H     4.49098  -0.49762  -0.39193
H     3.66497  -0.07029  -1.91788
H     2.19055   1.35616  -0.13910
H    -0.10978   2.01681  -1.57987
H    -1.76062   2.73448  -1.57525
H    -1.20824   1.69582  -2.92159
H    -3.73069   0.51147  -1.73895
H    -3.47434   1.57087  -0.34323
H    -3.42593  -0.21987  -0.14484
H    -1.51756  -1.45381  -0.72701
H     0.41297  -1.98106  -1.97824
29

C     3.86662   0.25938  -0.88466
N     2.62586   0.43764  -0.15286
C     1.91446  -0.61121   0.26875
O     2.26328  -1.79043   0.21787
C     0.54260  -0.29039   0.81174
C    -0.12973  -1.34585   1.50234
N    -0.60433  -2.25841   2.04365
O     0.25705   0.97315   0.93408
N    -0.99352   1.50491   1.08671
C    -1.81510   0.85835   1.90338
N    -2.67091   0.46268   2.60210
C    -1.70672   0.62935  -1.15448
C    -1.16425   1.84839  -1.82633
C    -3.15842   0.62096  -0.79806
C    -1.00302  -0.57904  -1.13397
C     0.15039  -0.89912  -1.98327
O     0.80069  -0.11268  -2.65826
H     4.40633   1.21346  -0.91011
H     4.49083  -0.49722  -0.39078
H     3.66597  -0.07025  -1.91744
H     2.18906   1.35559  -0.14057
H    -0.10891   2.01863  -1.58036
H    -1.76032   2.73525  -1.57560
H    -1.20920   1.69297  -2.91969
H    -3.72611   0.50721  -1.74030
H    -3.47669   1.57058  -0.34614
H    -3.42495  -0.21964  -0.14345
H    -1.51455  -1.45249  -0.72306
H     0.41121  -1.98129  -1.97991
29

C     3.86659   0.25988  -0.88260
N     2.62293   0.43669  -0.15475
C     1.91088  -0.61300   0.26363
O     2.26319  -1.79141   0.21673
C     0.53221  -0.29382   0.79369
C    -0.13062  -1.34755   1.49943
N    -0.60286  -2.25774   2.04651
O     0.25782   0.97390   0.93736
N    -1.00457   1.49584   1.06607
C    -1.81863   0.85992   1.89928
N    -2.66967   0.46538   2.60444
C    -1.69881   0.63681  -1.13629
C    -1.16189   1.85031  -1.82161
C    -3.15467   0.61872  -0.79703
C    -0.98827  -0.57392  -1.11368
C     0.15202  -0.89815  -1.98195
O     0.79920  -0.11266  -2.65970
H     4.40605   1.21377  -0.90911
H     4.49067  -0.49683  -0.38964
H     3.66697  -0.07022  -1.91700
H     2.18757   1.35501  -0.14204
H    -0.10804   2.02046  -1.58085
H    -1.76002   2.73602  -1.57596
H    -1.21016   1.69012  -2.91779
H    -3.72154   0.50296  -1.74164
H    -3.47904   1.57029  -0.34905
H    -3.42397  -0.21941  -0.14207
H    -1.51155  -1.45117  -0.71911
H     0.40946  -1.98152  -1.98159
29

C     3.86657   0.26038  -0.88054
N     2.62001   0.43574  -0.15665
C     1.90731  -0.61478   0.25852
O     2.26311  -1.79238   0.21558
C     0.52183  -0.29725   0.77565
C    -0.13150  -1.34925   1.49652
N    -0.60140  -2.25706   2.04937
O     0.25860   0.97464   0.94064
N    -1.01561   1.48677   1.04544
C    -1.82216   0.86148   1.89518
N    -2.66843   0.46808   2.60679
C    -1.69090   0.64427  -1.11810
C    -1.15952   1.85223  -1.81690
C    -3.15092   0.61648  -0.79599
C    -0.97353  -0.56881  -1.09339
C     0.15365  -0.89718  -1.98064
O     0.79772  -0.11263  -2.66114
H     4.40576   1.21409  -0.90812
H     4.49052  -0.49644  -0.38849
H     3.66797  -0.07018  -1.91656
H     2.18608   1.35443  -0.14351
H    -0.10717   2.02229  -1.58134
H    -1.75972   2.73678  -1.57631
H    -1.21112   1.68727  -2.91589
H    -3.71697   0.49870  -1.74299
H    -3.48139   1.57000  -0.35196
H    -3.42299  -0.21919  -0.14069
H    -1.50855  -1.44985  -0.71517
H     0.40770  -1.98174  -1.98327
29

C     3.86654   0.26088  -0.87848
N     2.61709   0.43479  -0.15854
C     1.90374  -0.61656   0.25341
O     2.26303  -1.79336   0.21443
C     0.51144  -0.30068   0.75760
C    -0.13238  -1.35095   1.49362
N    -0.59993  -2.25639   2.05222
O     0.25938   0.97538   0.94392
N    -1.02665   1.47770   1.02481
C    -1.82569   0.86305   1.89108
N    -2.66719   0.47078   2.60913
C    -1.68299   0.65174  -1.09991
C    -1.15716   1.85416  -1.81219
C    -3.14718   0.61424  -0.79495
C    -0.95879  -0.56369  -1.07310
C     0.15529  -0.89621  -1.97933
O     0.79623  -0.11261  -2.66257
H     4.40548   1.21440  -0.90712
H     4.49036  -0.49604  -0.38734
H     3.66897  -0.07014  -1.91612
H     2.18459   1.35385  -0.14497
H    -0.10630   2.02411  -1.58182
H    -1.75942   2.73755  -1.57666
H    -1.21208   1.68442  -2.91399
H    -3.71239   0.49444  -1.74434
H    -3.48374   1.56972  -0.35487
H    -3.42201  -0.21896  -0.13931
H    -1.50555  -1.44852  -0.71122
H     0.40595  -1.98197  -1.98494
29

C     3.86651   0.26138  -0.87641
N     2.61417   0.43384  -0.16044
C     1.90016  -0.61835   0.24830
O     2.26295  -1.79434   0.21329
C     0.50105  -0.30411   0.73956
C    -0.13327  -1.35265   1.49071
N    -0.59846  -2.25572   2.05508
O     0.26015   0.97613   0.94721
N    -1.03769   1.46862   1.00418
C    -1.82922   0.86461   1.88697
N    -2.66596   0.47348   2.61148
C    -1.67509   0.65920  -1.08171
C    -1.15480   1.85608  -1.80747
C    -3.14343   0.61199  -0.79392
C    -0.94405  -0.55857  -1.05281
C     0.15692  -0.89525  -1.97801
O     0.79475  -0.11258  -2.66401
H     4.40520   1.21471  -0.90612
H     4.49021  -0.49565  -0.38619
H     3.66998  -0.07011  -1.91568
H     2.18310   1.35327  -0.14644
H    -0.10543   2.02594  -1.58231
H    -1.75912   2.73832  -1.57701
H    -1.21304   1.68157  -2.91210
H    -3.70782   0.49018  -1.74569
H    -3.48608   1.56943  -0.35778
H    -3.42103  -0.21873  -0.13792
H    -1.50254  -1.44720  -0.70728
H     0.40419  -1.98220  -1.98662
29

C     3.86648   0.26188  -0.87435
N     2.61125   0.43289  -0.16233
C     1.89659  -0.62013   0.24319
O     2.26286  -1.79531   0.21214
C     0.49067  -0.30754   0.72151
C    -0.13415  -1.35435   1.48780
N    -0.59699  -2.25505   2.05794
O     0.26093   0.97687   0.95049
N    -1.04873   1.45955   0.98355
C    -1.83275   0.86618   1.88287
N    -2.66472   0.47618   2.61382
C    -1.66718   0.66666  -1.06352
C    -1.15244   1.85800  -1.80276
C    -3.13968   0.60975  -0.79288
C    -0.92931  -0.55346  -1.03251
C     0.15855  -0.89428  -1.97670
O     0.79326  -0.11256  -2.66545
H     4.40491   1.21503  -0.90512
H     4.49005  -0.49525  -0.38504
H     3.67098  -0.07007  -1.91524
H     2.18161   1.35269  -0.14791
H    -0.10456   2.02776  -1.58280
H    -1.75882   2.73909  -1.57736
H    -1.21400   1.67871  -2.91020
H    -3.70324   0.48593  -1.74703
H    -3.48843   1.56914  -0.36069
H    -3.42006  -0.21850  -0.13654
H    -1.49954  -1.44588  -0.70333
H     0.40244  -1.98243  -1.98830
29

C     3.86646   0.26238  -0.87229
N     2.60832   0.43194  -0.16423
C     1.89302  -0.62191   0.23808
O     2.26278  -1.79629   0.21100
C     0.48028  -0.31097   0.70346
C    -0.13503  -1.35605   1.48489
N    -0.59553  -2.25438   2.06080
O     0.26171   0.97762   0.95377
N    -1.05977   1.45048   0.96292
C    -1.83628   0.86774   1.87877
N    -2.66348   0.47888   2.61617
C    -1.65927   0.67412  -1.04533
C    -1.15008   1.85992  -1.79805
C    -3.13593   0.60751  -0.79184
C    -0.91457  -0.54834  -1.01222
C     0.16018  -0.89331  -1.97538
O     0.79178  -0.11253  -2.66689
H     4.40463   1.21534  -0.90412
H     4.48990  -0.49486  -0.38389
H     3.67198  -0.07003  -1.91480
H     2.18012   1.35211  -0.14938
H    -0.10369   2.02959  -1.58329
H    -1.75852   2.73985  -1.57772
H    -1.21496   1.67586  -2.90830
H    -3.69867   0.48167  -1.74838
H    -3.49078   1.56885  -0.36361
H    -3.41908  -0.21827  -0.13516
H    -1.49654  -1.44455  -0.69939
H     0.40068  -1.98265  -1.98997
29

C     3.86643   0.26288  -0.87023
N     2.60540   0.43099  -0.16612
C     1.88944  -0.62370   0.23297
O     2.26270  -1.79726   0.20985
C     0.46989  -0.31439   0.68542
C    -0.13592  -1.35775   1.48199
N    -0.59406  -2.25371   2.06365
O     0.26248   0.97836   0.95705
N    -1.07081   1.44141   0.94229
C    -1.83980   0.86931   1.87467
N    -2.66225   0.48158   2.61851
C    -1.65136   0.68159  -1.02714
C    -1.14772   1.86185  -1.79333
C    -3.13219   0.60527  -0.79080
C    -0.89983  -0.54323  -0.99193
C     0.16181  -0.89234  -1.97407
O     0.79029  -0.11251  -2.66832
H     4.40435   1.21565  -0.90313
H     4.48974  -0.49446  -0.38274
H     3.67298  -0.07000  -1.91436
H     2.17863   1.35153  -0.15084
H    -0.10282   2.03142  -1.58377
H    -1.75822   2.74062  -1.57807
H    -1.21592   1.67301  -2.90640
H    -3.69409   0.47741  -1.74973
H    -3.49313   1.56857  -0.36652
H    -3.41810  -0.21805  -0.13378
H    -1.49354  -1.44323  -0.69544
H     0.39893  -1.98288  -1.99165
29

C     3.86640   0.26338  -0.86817
N     2.60248   0.43004  -0.16802
C     1.88587  -0.62548   0.22786
O     2.26261  -1.79824   0.20871
C     0.45951  -0.31782   0.66737
C    -0.13680  -1.35945   1.47908
N    -0.59259  -2.25304   2.06651
O     0.26326   0.97910   0.96034
N    -1.08185   1.43233   0.92166
C    -1.84333   0.87087   1.87057
N    -2.66101   0.48428   2.62086
C    -1.64345   0.68905  -1.00895
C    -1.14536   1.86377  -1.78862
C    -3.12844   0.60303  -0.78977
C    -0.88509  -0.53811  -0.97164
C     0.16344  -0.89138  -1.97276
O     0.78881  -0.11248  -2.66976
H     4.40406   1.21597  -0.90213
H     4.48959  -0.49407  -0.38159
H     3.67398  -0.06996  -1.91392
H     2.17714   1.35095  -0.15231
H    -0.10195   2.03324  -1.58426
H    -1.75792   2.74139  -1.57842
H    -1.21688   1.67016  -2.90450
H    -3.68952   0.47315  -1.75108
H    -3.49548   1.56828  -0.36943
H    -3.41712  -0.21782  -0.13239
H    -1.49053  -1.44191  -0.69149
H     0.39717  -1.98311  -1.99333
29

C     3.86637   0.26388  -0.86610
N     2.59956   0.42909  -0.16991
C     1.88230  -0.62726   0.22275
O     2.26253  -1.79922   0.20756
C     0.44912  -0.32125   0.64933
C    -0.13769  -1.36115   1.47617
N    -0.59112  -2.25237   2.06937
O     0.26404   0.97985   0.96362
N    -1.09289   1.42326   0.90102
C    -1.84686   0.87244   1.86647
N    -2.65977   0.48698   2.62321
C    -1.63554   0.69651  -0.99076
C    -1.14300   1.86569  -1.78391
C    -3.12469   0.60079  -0.78873
C    -0.87035  -0.53300  -0.95135
C     0.16507  -0.89041  -1.97144
O     0.78732  -0.11246  -2.67120
H     4.40378   1.21628  -0.90113
H     4.48943  -0.49367  -0.38045
H     3.67498  -0.06993  -1.91348
H     2.17565   1.35038  -0.15378
H    -0.10108   2.03507  -1.58475
H    -1.75762   2.74216  -1.57877
H    -1.21784   1.66731  -2.90260
H    -3.68495   0.46890  -1.75242
H    -3.49783   1.56799  -0.37234
H    -3.41614  -0.21759  -0.13101
H    -1.48753  -1.44058  -0.68755
H     0.39542  -1.98333  -1.99500
