11

C -2.853588682 -0.144045716 -0.613470844
N -0.641841944 -1.652570296 0.001936667
C 1.403662052 -0.759840733 1.101979465
N 1.866431943 1.681411126 1.655572957
C 4.115278710 0.267303631 0.589536385
N 6.146245214 0.260951525 -0.302874645
H -3.314153640 1.118296476 0.950733119
H -4.455227250 -1.395252129 -0.915642000
H -2.555893304 0.977169971 -2.321838894
H -0.637736949 -3.495069878 -0.456466671
H 0.875961890 3.094453911 0.771208116

