14

C 2.007021576 -0.535422528 -1.398898128
C -0.475137581 -1.810379435 -0.412246230
C -2.595543443 -0.086479707 -1.212791739
C 0.230274882 -0.775059303 2.236947332
N -0.381106793 1.883678944 1.953897936
C 2.123153977 0.923152037 1.074094856
C -2.319767565 2.049127150 0.068765490
H 1.901608911 0.495198611 -3.182858096
H 3.560796442 -1.887007602 -1.450120535
H -0.699441118 -3.826475306 -0.722915126
H -3.887007750 -0.433612305 -2.756336082
H 0.132997526 -1.682620985 4.068519705
H 3.759344392 1.843126272 1.880475783
H -3.328586783 3.813222581 -0.131657351

