26

C    -4.02456  -0.95833   0.20273
N    -2.78702  -0.23765   0.45771
C    -1.98482   0.14713  -0.54107
O    -2.27059   0.13759  -1.73239
C    -0.53395   0.49185  -0.11572
O    -0.44348   1.20194   1.13081
C     0.73329   1.88678   1.07914
O     1.27363   2.38405   2.03114
C     1.14112   1.76589  -0.34422
C     2.10522   2.57909  -1.00847
N     2.95374   3.16650  -1.54396
O     0.03334   1.38040  -1.04490
C     1.78144  -0.24920   0.04613
C     3.25537  -0.19572   0.20735
C     0.58082  -0.74564  -0.00101
C     0.01788  -2.16565   0.13780
F    -0.70242  -2.25253   1.27375
F    -0.82963  -2.41744  -0.88022
F     0.90652  -3.15634   0.15944
H    -4.60475  -0.46820  -0.58393
H    -4.61624  -0.99732   1.12432
H    -3.80708  -1.99884  -0.12180
H    -2.41810  -0.23211   1.40021
H     3.48420   0.54680   1.03421
H     3.78604  -1.11326   0.42912
H     3.71063   0.26351  -0.71669
26

C    -4.02438  -0.95958   0.20271
N    -2.78774  -0.23787   0.45735
C    -1.98802   0.14988  -0.54214
O    -2.27175   0.13633  -1.73391
C    -0.54880   0.51550  -0.11637
O    -0.44525   1.20244   1.12816
C     0.73629   1.89224   1.07748
O     1.27504   2.38294   2.03339
C     1.13474   1.78183  -0.34371
C     2.10388   2.58241  -1.00981
N     2.95529   3.16602  -1.54521
O     0.03232   1.38100  -1.04268
C     1.79137  -0.26735   0.04944
C     3.25939  -0.18995   0.20749
C     0.59719  -0.76445   0.00058
C     0.01819  -2.17027   0.13800
F    -0.70278  -2.25322   1.27373
F    -0.83008  -2.41756  -0.88030
F     0.90187  -3.16676   0.15998
H    -4.60473  -0.46870  -0.58401
H    -4.61613  -0.99772   1.12434
H    -3.80682  -1.99917  -0.12176
H    -2.41842  -0.23141   1.40017
H     3.48330   0.54955   1.03372
H     3.79044  -1.10964   0.42958
H     3.71007   0.26559  -0.71718
26

C    -4.02420  -0.96083   0.20269
N    -2.78846  -0.23809   0.45698
C    -1.99121   0.15263  -0.54321
O    -2.27291   0.13508  -1.73544
C    -0.56365   0.53915  -0.11701
O    -0.44702   1.20293   1.12551
C     0.73930   1.89770   1.07582
O     1.27645   2.38183   2.03564
C     1.12836   1.79776  -0.34319
C     2.10255   2.58573  -1.01116
N     2.95683   3.16553  -1.54647
O     0.03130   1.38159  -1.04045
C     1.80129  -0.28550   0.05276
C     3.26341  -0.18418   0.20764
C     0.61357  -0.78326   0.00218
C     0.01849  -2.17490   0.13820
F    -0.70313  -2.25392   1.27371
F    -0.83054  -2.41767  -0.88039
F     0.89721  -3.17717   0.16052
H    -4.60471  -0.46920  -0.58409
H    -4.61603  -0.99812   1.12436
H    -3.80657  -1.99950  -0.12171
H    -2.41875  -0.23070   1.40013
H     3.48239   0.55230   1.03323
H     3.79484  -1.10602   0.43004
H     3.70951   0.26767  -0.71768
26

C    -4.02402  -0.96209   0.20267
N    -2.78917  -0.23832   0.45661
C    -1.99441   0.15539  -0.54427
O    -2.27407   0.13382  -1.73696
C    -0.57849   0.56280  -0.11766
O    -0.44880   1.20343   1.12285
C     0.74230   1.90316   1.07415
O     1.27786   2.38073   2.03789
C     1.12198   1.81370  -0.34268
C     2.10121   2.58905  -1.01251
N     2.95838   3.16505  -1.54772
O     0.03027   1.38218  -1.03823
C     1.81122  -0.30365   0.05608
C     3.26743  -0.17841   0.20778
C     0.62994  -0.80207   0.00377
C     0.01879  -2.17953   0.13841
F    -0.70349  -2.25461   1.27368
F    -0.83099  -2.41779  -0.88047
F     0.89256  -3.18758   0.16106
H    -4.60469  -0.46970  -0.58417
H    -4.61593  -0.99851   1.12439
H    -3.80631  -1.99984  -0.12167
H    -2.41907  -0.22999   1.40009
H     3.48148   0.55504   1.03274
H     3.79924  -1.10241   0.43051
H     3.70895   0.26975  -0.71818
26

C    -4.02384  -0.96334   0.20266
N    -2.78989  -0.23854   0.45625
C    -1.99761   0.15814  -0.54534
O    -2.27524   0.13257  -1.73848
C    -0.59334   0.58645  -0.11831
O    -0.45057   1.20393   1.12020
C     0.74530   1.90862   1.07249
O     1.27928   2.37962   2.04014
C     1.11560   1.82964  -0.34216
C     2.09987   2.59237  -1.01385
N     2.95992   3.16457  -1.54897
O     0.02925   1.38277  -1.03601
C     1.82114  -0.32180   0.05939
C     3.27146  -0.17264   0.20793
C     0.64632  -0.82087   0.00536
C     0.01910  -2.18415   0.13861
F    -0.70384  -2.25531   1.27366
F    -0.83144  -2.41791  -0.88055
F     0.88791  -3.19800   0.16159
H    -4.60467  -0.47020  -0.58426
H    -4.61583  -0.99891   1.12441
H    -3.80606  -2.00017  -0.12163
H    -2.41939  -0.22929   1.40005
H     3.48058   0.55779   1.03225
H     3.80364  -1.09879   0.43097
H     3.70839   0.27182  -0.71868
26

C    -4.02366  -0.96459   0.20264
N    -2.79061  -0.23876   0.45588
C    -2.00081   0.16089  -0.54641
O    -2.27640   0.13131  -1.74001
C    -0.60819   0.61010  -0.11896
O    -0.45234   1.20442   1.11755
C     0.74830   1.91408   1.07082
O     1.28069   2.37851   2.04239
C     1.10922   1.84557  -0.34165
C     2.09853   2.59569  -1.01520
N     2.96146   3.16409  -1.55022
O     0.02823   1.38336  -1.03379
C     1.83107  -0.33996   0.06271
C     3.27548  -0.16687   0.20807
C     0.66269  -0.83968   0.00695
C     0.01940  -2.18878   0.13881
F    -0.70420  -2.25600   1.27364
F    -0.83189  -2.41802  -0.88064
F     0.88326  -3.20841   0.16213
H    -4.60465  -0.47070  -0.58434
H    -4.61573  -0.99931   1.12443
H    -3.80580  -2.00050  -0.12159
H    -2.41972  -0.22858   1.40001
H     3.47967   0.56053   1.03176
H     3.80804  -1.09517   0.43144
H     3.70783   0.27390  -0.71918
26

C    -4.02348  -0.96584   0.20262
N    -2.79132  -0.23898   0.45551
C    -2.00400   0.16365  -0.54747
O    -2.27756   0.13006  -1.74153
C    -0.62303   0.63374  -0.11961
O    -0.45411   1.20492   1.11490
C     0.75130   1.91953   1.06916
O     1.28210   2.37740   2.04463
C     1.10284   1.86151  -0.34113
C     2.09720   2.59901  -1.01654
N     2.96301   3.16361  -1.55148
O     0.02721   1.38395  -1.03156
C     1.84100  -0.35811   0.06602
C     3.27950  -0.16109   0.20822
C     0.67906  -0.85849   0.00855
C     0.01970  -2.19340   0.13902
F    -0.70456  -2.25670   1.27362
F    -0.83235  -2.41814  -0.88072
F     0.87861  -3.21882   0.16267
H    -4.60463  -0.47120  -0.58442
H    -4.61563  -0.99971   1.12445
H    -3.80555  -2.00083  -0.12154
H    -2.42004  -0.22787   1.39997
H     3.47877   0.56328   1.03127
H     3.81244  -1.09155   0.43190
H     3.70727   0.27598  -0.71967
26

C    -4.02330  -0.96710   0.20260
N    -2.79204  -0.23920   0.45515
C    -2.00720   0.16640  -0.54854
O    -2.27872   0.12880  -1.74305
C    -0.63788   0.65739  -0.12026
O    -0.45588   1.20542   1.11225
C     0.75430   1.92499   1.06749
O     1.28351   2.37630   2.04688
C     1.09646   1.87745  -0.34062
C     2.09586   2.60233  -1.01789
N     2.96455   3.16313  -1.55273
O     0.02618   1.38455  -1.02934
C     1.85092  -0.37626   0.06934
C     3.28352  -0.15532   0.20836
C     0.69544  -0.87730   0.01014
C     0.02001  -2.19803   0.13922
F    -0.70491  -2.25739   1.27359
F    -0.83280  -2.41826  -0.88080
F     0.87395  -3.22924   0.16321
H    -4.60461  -0.47170  -0.58450
H    -4.61553  -1.00010   1.12447
H    -3.80530  -2.00117  -0.12150
H    -2.42036  -0.22716   1.39993
H     3.47786   0.56602   1.03078
H     3.81684  -1.08794   0.43236
H     3.70671   0.27806  -0.72017
26

C    -4.02313  -0.96835   0.20258
N    -2.79276  -0.23942   0.45478
C    -2.01040   0.16915  -0.54961
O    -2.27988   0.12755  -1.74458
C    -0.65273   0.68104  -0.12091
O    -0.45765   1.20592   1.10960
C     0.75730   1.93045   1.06583
O     1.28492   2.37519   2.04913
C     1.09008   1.89339  -0.34010
C     2.09452   2.60565  -1.01924
N     2.96610   3.16265  -1.55398
O     0.02516   1.38514  -1.02712
C     1.86085  -0.39441   0.07266
C     3.28755  -0.14955   0.20851
C     0.71181  -0.89610   0.01173
C     0.02031  -2.20266   0.13943
F    -0.70527  -2.25809   1.27357
F    -0.83325  -2.41837  -0.88089
F     0.86930  -3.23965   0.16375
H    -4.60459  -0.47221  -0.58458
H    -4.61543  -1.00050   1.12449
H    -3.80504  -2.00150  -0.12146
H    -2.42069  -0.22646   1.39989
H     3.47695   0.56877   1.03030
H     3.82124  -1.08432   0.43283
H     3.70615   0.28014  -0.72067
26

C    -4.02295  -0.96960   0.20257
N    -2.79348  -0.23964   0.45441
C    -2.01360   0.17191  -0.55068
O    -2.28104   0.12629  -1.74610
C    -0.66757   0.70469  -0.12155
O    -0.45942   1.20641   1.10695
C     0.76030   1.93591   1.06416
O     1.28633   2.37408   2.05138
C     1.08370   1.90932  -0.33958
C     2.09318   2.60897  -1.02058
N     2.96764   3.16217  -1.55523
O     0.02414   1.38573  -1.02489
C     1.87078  -0.41256   0.07597
C     3.29157  -0.14378   0.20865
C     0.72819  -0.91491   0.01332
C     0.02061  -2.20728   0.13963
F    -0.70562  -2.25878   1.27355
F    -0.83370  -2.41849  -0.88097
F     0.86465  -3.25007   0.16428
H    -4.60457  -0.47271  -0.58467
H    -4.61533  -1.00090   1.12451
H    -3.80479  -2.00183  -0.12142
H    -2.42101  -0.22575   1.39985
H     3.47605   0.57151   1.02981
H     3.82564  -1.08070   0.43329
H     3.70559   0.28221  -0.72117
26

C    -4.02277  -0.97086   0.20255
N    -2.79419  -0.23986   0.45405
C    -2.01680   0.17466  -0.55174
O    -2.28221   0.12504  -1.74762
C    -0.68242   0.72834  -0.12220
O    -0.46119   1.20691   1.10430
C     0.76330   1.94137   1.06250
O     1.28775   2.37297   2.05363
C     1.07732   1.92526  -0.33907
C     2.09185   2.61229  -1.02193
N     2.96919   3.16168  -1.55648
O     0.02311   1.38632  -1.02267
C     1.88070  -0.43071   0.07929
C     3.29559  -0.13801   0.20880
C     0.74456  -0.93372   0.01492
C     0.02092  -2.21191   0.13983
F    -0.70598  -2.25948   1.27353
F    -0.83416  -2.41861  -0.88105
F     0.86000  -3.26048   0.16482
H    -4.60455  -0.47321  -0.58475
H    -4.61523  -1.00130   1.12453
H    -3.80453  -2.00217  -0.12137
H    -2.42133  -0.22504   1.39981
H     3.47514   0.57426   1.02932
H     3.83004  -1.07708   0.43376
H     3.70502   0.28429  -0.72166
26

C    -4.02259  -0.97211   0.20253
N    -2.79491  -0.24008   0.45368
C    -2.01999   0.17741  -0.55281
O    -2.28337   0.12378  -1.74915
C    -0.69727   0.75199  -0.12285
O    -0.46296   1.20741   1.10165
C     0.76630   1.94683   1.06083
O     1.28916   2.37187   2.05588
C     1.07094   1.94120  -0.33855
C     2.09051   2.61561  -1.02327
N     2.97073   3.16120  -1.55774
O     0.02209   1.38691  -1.02045
C     1.89063  -0.44887   0.08260
C     3.29961  -0.13224   0.20894
C     0.76094  -0.95253   0.01651
C     0.02122  -2.21653   0.14004
F    -0.70633  -2.26017   1.27350
F    -0.83461  -2.41873  -0.88114
F     0.85534  -3.27089   0.16536
H    -4.60453  -0.47371  -0.58483
H    -4.61513  -1.00169   1.12455
H    -3.80428  -2.00250  -0.12133
H    -2.42165  -0.22434   1.39977
H     3.47424   0.57701   1.02883
H     3.83444  -1.07346   0.43422
H     3.70446   0.28637  -0.72216
26

C    -4.02241  -0.97336   0.20251
N    -2.79563  -0.24030   0.45332
C    -2.02319   0.18017  -0.55388
O    -2.28453   0.12253  -1.75067
C    -0.71211   0.77564  -0.12350
O    -0.46473   1.20790   1.09900
C     0.76930   1.95229   1.05917
O     1.29057   2.37076   2.05813
C     1.06456   1.95713  -0.33804
C     2.08917   2.61893  -1.02462
N     2.97228   3.16072  -1.55899
O     0.02107   1.38750  -1.01822
C     1.90056  -0.46702   0.08592
C     3.30364  -0.12647   0.20909
C     0.77731  -0.97133   0.01810
C     0.02153  -2.22116   0.14024
F    -0.70669  -2.26087   1.27348
F    -0.83506  -2.41884  -0.88122
F     0.85069  -3.28131   0.16590
H    -4.60451  -0.47421  -0.58491
H    -4.61503  -1.00209   1.12457
H    -3.80403  -2.00283  -0.12129
H    -2.42198  -0.22363   1.39973
H     3.47333   0.57975   1.02834
H     3.83884  -1.06985   0.43469
H     3.70390   0.28845  -0.72266
26

C    -4.02223  -0.97461   0.20250
N    -2.79635  -0.24052   0.45295
C    -2.02639   0.18292  -0.55494
O    -2.28569   0.12127  -1.75219
C    -0.72696   0.79929  -0.12415
O    -0.46651   1.20840   1.09635
C     0.77230   1.95775   1.05750
O     1.29198   2.36965   2.06038
C     1.05818   1.97307  -0.33752
C     2.08784   2.62225  -1.02596
N     2.97382   3.16024  -1.56024
O     0.02004   1.38810  -1.01600
C     1.91048  -0.48517   0.08924
C     3.30766  -0.12070   0.20923
C     0.79369  -0.99014   0.01969
C     0.02183  -2.22579   0.14045
F    -0.70704  -2.26156   1.27346
F    -0.83551  -2.41896  -0.88130
F     0.84604  -3.29172   0.16643
H    -4.60449  -0.47471  -0.58499
H    -4.61493  -1.00249   1.12459
H    -3.80377  -2.00317  -0.12125
H    -2.42230  -0.22292   1.39969
H     3.47242   0.58250   1.02785
H     3.84324  -1.06623   0.43515
H     3.70334   0.29052  -0.72316
26

C    -4.02205  -0.97587   0.20248
N    -2.79706  -0.24074   0.45258
C    -2.02959   0.18567  -0.55601
O    -2.28685   0.12002  -1.75371
C    -0.74181   0.82294  -0.12480
O    -0.46828   1.20890   1.09370
C     0.77530   1.96320   1.05584
O     1.29339   2.36854   2.06263
C     1.05180   1.98901  -0.33701
C     2.08650   2.62557  -1.02731
N     2.97536   3.15976  -1.56149
O     0.01902   1.38869  -1.01378
C     1.92041  -0.50332   0.09255
C     3.31168  -0.11492   0.20938
C     0.81006  -1.00895   0.02129
C     0.02213  -2.23041   0.14065
F    -0.70740  -2.26226   1.27344
F    -0.83597  -2.41908  -0.88139
F     0.84139  -3.30213   0.16697
H    -4.60446  -0.47521  -0.58508
H    -4.61483  -1.00289   1.12461
H    -3.80352  -2.00350  -0.12120
H    -2.42262  -0.22222   1.39965
H     3.47152   0.58524   1.02736
H     3.84764  -1.06261   0.43561
H     3.70278   0.29260  -0.72366
26

C    -4.02187  -0.97712   0.20246
N    -2.79778  -0.24096   0.45222
C    -2.03278   0.18843  -0.55708
O    -2.28801   0.11876  -1.75524
C    -0.75665   0.84659  -0.12545
O    -0.47005   1.20940   1.09105
C     0.77830   1.96866   1.05417
O     1.29481   2.36744   2.06488
C     1.04542   2.00494  -0.33649
C     2.08516   2.62889  -1.02866
N     2.97691   3.15928  -1.56275
O     0.01800   1.38928  -1.01155
C     1.93033  -0.52147   0.09587
C     3.31570  -0.10915   0.20952
C     0.82644  -1.02776   0.02288
C     0.02244  -2.23504   0.14085
F    -0.70775  -2.26295   1.27341
F    -0.83642  -2.41919  -0.88147
F     0.83674  -3.31255   0.16751
H    -4.60444  -0.47571  -0.58516
H    -4.61473  -1.00328   1.12463
H    -3.80326  -2.00383  -0.12116
H    -2.42295  -0.22151   1.39961
H     3.47061   0.58799   1.02687
H     3.85204  -1.05899   0.43608
H     3.70222   0.29468  -0.72415
26

C    -4.02169  -0.97837   0.20244
N    -2.79850  -0.24118   0.45185
C    -2.03598   0.19118  -0.55815
O    -2.28918   0.11751  -1.75676
C    -0.77150   0.87024  -0.12609
O    -0.47182   1.20989   1.08840
C     0.78130   1.97412   1.05251
O     1.29622   2.36633   2.06713
C     1.03903   2.02088  -0.33598
C     2.08382   2.63221  -1.03000
N     2.97845   3.15880  -1.56400
O     0.01698   1.38987  -1.00933
C     1.94026  -0.53962   0.09918
C     3.31973  -0.10338   0.20967
C     0.84281  -1.04656   0.02447
C     0.02274  -2.23967   0.14106
F    -0.70811  -2.26365   1.27339
F    -0.83687  -2.41931  -0.88155
F     0.83208  -3.32296   0.16805
H    -4.60442  -0.47621  -0.58524
H    -4.61462  -1.00368   1.12465
H    -3.80301  -2.00416  -0.12112
H    -2.42327  -0.22080   1.39957
H     3.46971   0.59073   1.02638
H     3.85644  -1.05537   0.43654
H     3.70166   0.29676  -0.72465
26

C    -4.02151  -0.97962   0.20242
N    -2.79921  -0.24140   0.45148
C    -2.03918   0.19393  -0.55921
O    -2.29034   0.11625  -1.75828
C    -0.78635   0.89389  -0.12674
O    -0.47359   1.21039   1.08575
C     0.78430   1.97958   1.05084
O     1.29763   2.36522   2.06938
C     1.03265   2.03682  -0.33546
C     2.08249   2.63554  -1.03135
N     2.98000   3.15832  -1.56525
O     0.01595   1.39046  -1.00711
C     1.95019  -0.55778   0.10250
C     3.32375  -0.09761   0.20981
C     0.85918  -1.06537   0.02606
C     0.02304  -2.24429   0.14126
F    -0.70846  -2.26434   1.27337
F    -0.83733  -2.41943  -0.88164
F     0.82743  -3.33337   0.16859
H    -4.60440  -0.47671  -0.58532
H    -4.61452  -1.00408   1.12467
H    -3.80276  -2.00450  -0.12108
H    -2.42359  -0.22010   1.39953
H     3.46880   0.59348   1.02589
H     3.86084  -1.05176   0.43701
H     3.70110   0.29884  -0.72515
26

C    -4.02133  -0.98088   0.20241
N    -2.79993  -0.24162   0.45112
C    -2.04238   0.19669  -0.56028
O    -2.29150   0.11500  -1.75981
C    -0.80119   0.91754  -0.12739
O    -0.47536   1.21089   1.08310
C     0.78730   1.98504   1.04918
O     1.29904   2.36411   2.07163
C     1.02627   2.05276  -0.33494
C     2.08115   2.63886  -1.03269
N     2.98154   3.15784  -1.56650
O     0.01493   1.39105  -1.00489
C     1.96011  -0.57593   0.10582
C     3.32777  -0.09184   0.20995
C     0.87556  -1.08418   0.02766
C     0.02335  -2.24892   0.14147
F    -0.70882  -2.26504   1.27335
F    -0.83778  -2.41954  -0.88172
F     0.82278  -3.34379   0.16912
H    -4.60438  -0.47721  -0.58540
H    -4.61442  -1.00448   1.12469
H    -3.80250  -2.00483  -0.12103
H    -2.42392  -0.21939   1.39949
H     3.46789   0.59622   1.02540
H     3.86524  -1.04814   0.43747
H     3.70054   0.30091  -0.72565
26

C    -4.02115  -0.98213   0.20239
N    -2.80065  -0.24184   0.45075
C    -2.04558   0.19944  -0.56135
O    -2.29266   0.11374  -1.76133
C    -0.81604   0.94119  -0.12804
O    -0.47713   1.21138   1.08045
C     0.79030   1.99050   1.04751
O     1.30045   2.36301   2.07388
C     1.01989   2.06869  -0.33443
C     2.07981   2.64218  -1.03404
N     2.98309   3.15735  -1.56776
O     0.01391   1.39165  -1.00266
C     1.97004  -0.59408   0.10913
C     3.33179  -0.08607   0.21010
C     0.89193  -1.10299   0.02925
C     0.02365  -2.25354   0.14167
F    -0.70917  -2.26573   1.27332
F    -0.83823  -2.41966  -0.88180
F     0.81813  -3.35420   0.16966
H    -4.60436  -0.47771  -0.58549
H    -4.61432  -1.00487   1.12471
H    -3.80225  -2.00516  -0.12099
H    -2.42424  -0.21868   1.39945
H     3.46699   0.59897   1.02492
H     3.86964  -1.04452   0.43793
H     3.69998   0.30299  -0.72614
26

C    -4.02097  -0.98338   0.20237
N    -2.80137  -0.24206   0.45038
C    -2.04877   0.20219  -0.56241
O    -2.29382   0.11249  -1.76285
C    -0.83089   0.96484  -0.12869
O    -0.47890   1.21188   1.07780
C     0.79330   1.99596   1.04585
O     1.30186   2.36190   2.07613
C     1.01351   2.08463  -0.33391
C     2.07847   2.64550  -1.03538
N     2.98463   3.15687  -1.56901
O     0.01288   1.39224  -1.00044
C     1.97997  -0.61223   0.11245
C     3.33582  -0.08030   0.21024
C     0.90831  -1.12179   0.03084
C     0.02396  -2.25817   0.14187
F    -0.70953  -2.26643   1.27330
F    -0.83868  -2.41978  -0.88189
F     0.81347  -3.36462   0.17020
H    -4.60434  -0.47821  -0.58557
H    -4.61422  -1.00527   1.12473
H    -3.80199  -2.00550  -0.12095
H    -2.42456  -0.21798   1.39941
H     3.46608   0.60171   1.02443
H     3.87404  -1.04090   0.43840
H     3.69942   0.30507  -0.72664
26

C    -4.02115  -0.98213   0.20239
N    -2.80065  -0.24184   0.45075
C    -2.04558   0.19944  -0.56135
O    -2.29266   0.11374  -1.76133
C    -0.81604   0.94119  -0.12804
O    -0.47713   1.21138   1.08045
C     0.79030   1.99050   1.04751
O     1.30045   2.36301   2.07388
C     1.01989   2.06869  -0.33443
C     2.07981   2.64218  -1.03404
N     2.98309   3.15735  -1.56776
O     0.01391   1.39165  -1.00266
C     1.97004  -0.59408   0.10913
C     3.33179  -0.08607   0.21010
C     0.89193  -1.10299   0.02925
C     0.02365  -2.25354   0.14167
F    -0.70917  -2.26573   1.27332
F    -0.83823  -2.41966  -0.88180
F     0.81813  -3.35420   0.16966
H    -4.60436  -0.47771  -0.58549
H    -4.61432  -1.00487   1.12471
H    -3.80225  -2.00516  -0.12099
H    -2.42424  -0.21868   1.39945
H     3.46699   0.59897   1.02492
H     3.86964  -1.04452   0.43793
H     3.69998   0.30299  -0.72614
26

C    -4.02133  -0.98088   0.20241
N    -2.79993  -0.24162   0.45112
C    -2.04238   0.19669  -0.56028
O    -2.29150   0.11500  -1.75981
C    -0.80119   0.91754  -0.12739
O    -0.47536   1.21089   1.08310
C     0.78730   1.98504   1.04918
O     1.29904   2.36411   2.07163
C     1.02627   2.05276  -0.33494
C     2.08115   2.63886  -1.03269
N     2.98154   3.15784  -1.56650
O     0.01493   1.39105  -1.00489
C     1.96011  -0.57593   0.10582
C     3.32777  -0.09184   0.20995
C     0.87556  -1.08418   0.02766
C     0.02335  -2.24892   0.14147
F    -0.70882  -2.26504   1.27335
F    -0.83778  -2.41954  -0.88172
F     0.82278  -3.34379   0.16912
H    -4.60438  -0.47721  -0.58540
H    -4.61442  -1.00448   1.12469
H    -3.80250  -2.00483  -0.12103
H    -2.42392  -0.21939   1.39949
H     3.46789   0.59622   1.02540
H     3.86524  -1.04814   0.43747
H     3.70054   0.30091  -0.72565
26

C    -4.02151  -0.97962   0.20242
N    -2.79921  -0.24140   0.45148
C    -2.03918   0.19393  -0.55921
O    -2.29034   0.11625  -1.75828
C    -0.78635   0.89389  -0.12674
O    -0.47359   1.21039   1.08575
C     0.78430   1.97958   1.05084
O     1.29763   2.36522   2.06938
C     1.03265   2.03682  -0.33546
C     2.08249   2.63554  -1.03135
N     2.98000   3.15832  -1.56525
O     0.01595   1.39046  -1.00711
C     1.95019  -0.55778   0.10250
C     3.32375  -0.09761   0.20981
C     0.85918  -1.06537   0.02606
C     0.02304  -2.24429   0.14126
F    -0.70846  -2.26434   1.27337
F    -0.83733  -2.41943  -0.88164
F     0.82743  -3.33337   0.16859
H    -4.60440  -0.47671  -0.58532
H    -4.61452  -1.00408   1.12467
H    -3.80276  -2.00450  -0.12108
H    -2.42359  -0.22010   1.39953
H     3.46880   0.59348   1.02589
H     3.86084  -1.05176   0.43701
H     3.70110   0.29884  -0.72515
26

C    -4.02169  -0.97837   0.20244
N    -2.79850  -0.24118   0.45185
C    -2.03598   0.19118  -0.55815
O    -2.28918   0.11751  -1.75676
C    -0.77150   0.87024  -0.12609
O    -0.47182   1.20989   1.08840
C     0.78130   1.97412   1.05251
O     1.29622   2.36633   2.06713
C     1.03903   2.02088  -0.33598
C     2.08382   2.63221  -1.03000
N     2.97845   3.15880  -1.56400
O     0.01698   1.38987  -1.00933
C     1.94026  -0.53962   0.09918
C     3.31973  -0.10338   0.20967
C     0.84281  -1.04656   0.02447
C     0.02274  -2.23967   0.14106
F    -0.70811  -2.26365   1.27339
F    -0.83687  -2.41931  -0.88155
F     0.83208  -3.32296   0.16805
H    -4.60442  -0.47621  -0.58524
H    -4.61462  -1.00368   1.12465
H    -3.80301  -2.00416  -0.12112
H    -2.42327  -0.22080   1.39957
H     3.46971   0.59073   1.02638
H     3.85644  -1.05537   0.43654
H     3.70166   0.29676  -0.72465
26

C    -4.02187  -0.97712   0.20246
N    -2.79778  -0.24096   0.45222
C    -2.03278   0.18843  -0.55708
O    -2.28801   0.11876  -1.75524
C    -0.75665   0.84659  -0.12545
O    -0.47005   1.20940   1.09105
C     0.77830   1.96866   1.05417
O     1.29481   2.36744   2.06488
C     1.04542   2.00494  -0.33649
C     2.08516   2.62889  -1.02866
N     2.97691   3.15928  -1.56275
O     0.01800   1.38928  -1.01155
C     1.93033  -0.52147   0.09587
C     3.31570  -0.10915   0.20952
C     0.82644  -1.02776   0.02288
C     0.02244  -2.23504   0.14085
F    -0.70775  -2.26295   1.27341
F    -0.83642  -2.41919  -0.88147
F     0.83674  -3.31255   0.16751
H    -4.60444  -0.47571  -0.58516
H    -4.61473  -1.00328   1.12463
H    -3.80326  -2.00383  -0.12116
H    -2.42295  -0.22151   1.39961
H     3.47061   0.58799   1.02687
H     3.85204  -1.05899   0.43608
H     3.70222   0.29468  -0.72415
26

C    -4.02205  -0.97587   0.20248
N    -2.79706  -0.24074   0.45258
C    -2.02959   0.18567  -0.55601
O    -2.28685   0.12002  -1.75371
C    -0.74181   0.82294  -0.12480
O    -0.46828   1.20890   1.09370
C     0.77530   1.96320   1.05584
O     1.29339   2.36854   2.06263
C     1.05180   1.98901  -0.33701
C     2.08650   2.62557  -1.02731
N     2.97536   3.15976  -1.56149
O     0.01902   1.38869  -1.01378
C     1.92041  -0.50332   0.09255
C     3.31168  -0.11492   0.20938
C     0.81006  -1.00895   0.02129
C     0.02213  -2.23041   0.14065
F    -0.70740  -2.26226   1.27344
F    -0.83597  -2.41908  -0.88139
F     0.84139  -3.30213   0.16697
H    -4.60446  -0.47521  -0.58508
H    -4.61483  -1.00289   1.12461
H    -3.80352  -2.00350  -0.12120
H    -2.42262  -0.22222   1.39965
H     3.47152   0.58524   1.02736
H     3.84764  -1.06261   0.43561
H     3.70278   0.29260  -0.72366
26

C    -4.02223  -0.97461   0.20250
N    -2.79635  -0.24052   0.45295
C    -2.02639   0.18292  -0.55494
O    -2.28569   0.12127  -1.75219
C    -0.72696   0.79929  -0.12415
O    -0.46651   1.20840   1.09635
C     0.77230   1.95775   1.05750
O     1.29198   2.36965   2.06038
C     1.05818   1.97307  -0.33752
C     2.08784   2.62225  -1.02596
N     2.97382   3.16024  -1.56024
O     0.02004   1.38810  -1.01600
C     1.91048  -0.48517   0.08924
C     3.30766  -0.12070   0.20923
C     0.79369  -0.99014   0.01969
C     0.02183  -2.22579   0.14045
F    -0.70704  -2.26156   1.27346
F    -0.83551  -2.41896  -0.88130
F     0.84604  -3.29172   0.16643
H    -4.60449  -0.47471  -0.58499
H    -4.61493  -1.00249   1.12459
H    -3.80377  -2.00317  -0.12125
H    -2.42230  -0.22292   1.39969
H     3.47242   0.58250   1.02785
H     3.84324  -1.06623   0.43515
H     3.70334   0.29052  -0.72316
26

C    -4.02241  -0.97336   0.20251
N    -2.79563  -0.24030   0.45332
C    -2.02319   0.18017  -0.55388
O    -2.28453   0.12253  -1.75067
C    -0.71211   0.77564  -0.12350
O    -0.46473   1.20790   1.09900
C     0.76930   1.95229   1.05917
O     1.29057   2.37076   2.05813
C     1.06456   1.95713  -0.33804
C     2.08917   2.61893  -1.02462
N     2.97228   3.16072  -1.55899
O     0.02107   1.38750  -1.01822
C     1.90056  -0.46702   0.08592
C     3.30364  -0.12647   0.20909
C     0.77731  -0.97133   0.01810
C     0.02153  -2.22116   0.14024
F    -0.70669  -2.26087   1.27348
F    -0.83506  -2.41884  -0.88122
F     0.85069  -3.28131   0.16590
H    -4.60451  -0.47421  -0.58491
H    -4.61503  -1.00209   1.12457
H    -3.80403  -2.00283  -0.12129
H    -2.42198  -0.22363   1.39973
H     3.47333   0.57975   1.02834
H     3.83884  -1.06985   0.43469
H     3.70390   0.28845  -0.72266
26

C    -4.02259  -0.97211   0.20253
N    -2.79491  -0.24008   0.45368
C    -2.01999   0.17741  -0.55281
O    -2.28337   0.12378  -1.74915
C    -0.69727   0.75199  -0.12285
O    -0.46296   1.20741   1.10165
C     0.76630   1.94683   1.06083
O     1.28916   2.37187   2.05588
C     1.07094   1.94120  -0.33855
C     2.09051   2.61561  -1.02327
N     2.97073   3.16120  -1.55774
O     0.02209   1.38691  -1.02045
C     1.89063  -0.44887   0.08260
C     3.29961  -0.13224   0.20894
C     0.76094  -0.95253   0.01651
C     0.02122  -2.21653   0.14004
F    -0.70633  -2.26017   1.27350
F    -0.83461  -2.41873  -0.88114
F     0.85534  -3.27089   0.16536
H    -4.60453  -0.47371  -0.58483
H    -4.61513  -1.00169   1.12455
H    -3.80428  -2.00250  -0.12133
H    -2.42165  -0.22434   1.39977
H     3.47424   0.57701   1.02883
H     3.83444  -1.07346   0.43422
H     3.70446   0.28637  -0.72216
26

C    -4.02277  -0.97086   0.20255
N    -2.79419  -0.23986   0.45405
C    -2.01680   0.17466  -0.55174
O    -2.28221   0.12504  -1.74762
C    -0.68242   0.72834  -0.12220
O    -0.46119   1.20691   1.10430
C     0.76330   1.94137   1.06250
O     1.28775   2.37297   2.05363
C     1.07732   1.92526  -0.33907
C     2.09185   2.61229  -1.02193
N     2.96919   3.16168  -1.55648
O     0.02311   1.38632  -1.02267
C     1.88070  -0.43071   0.07929
C     3.29559  -0.13801   0.20880
C     0.74456  -0.93372   0.01492
C     0.02092  -2.21191   0.13983
F    -0.70598  -2.25948   1.27353
F    -0.83416  -2.41861  -0.88105
F     0.86000  -3.26048   0.16482
H    -4.60455  -0.47321  -0.58475
H    -4.61523  -1.00130   1.12453
H    -3.80453  -2.00217  -0.12137
H    -2.42133  -0.22504   1.39981
H     3.47514   0.57426   1.02932
H     3.83004  -1.07708   0.43376
H     3.70502   0.28429  -0.72166
26

C    -4.02295  -0.96960   0.20257
N    -2.79348  -0.23964   0.45441
C    -2.01360   0.17191  -0.55068
O    -2.28104   0.12629  -1.74610
C    -0.66757   0.70469  -0.12155
O    -0.45942   1.20641   1.10695
C     0.76030   1.93591   1.06416
O     1.28633   2.37408   2.05138
C     1.08370   1.90932  -0.33958
C     2.09318   2.60897  -1.02058
N     2.96764   3.16217  -1.55523
O     0.02414   1.38573  -1.02489
C     1.87078  -0.41256   0.07597
C     3.29157  -0.14378   0.20865
C     0.72819  -0.91491   0.01332
C     0.02061  -2.20728   0.13963
F    -0.70562  -2.25878   1.27355
F    -0.83370  -2.41849  -0.88097
F     0.86465  -3.25007   0.16428
H    -4.60457  -0.47271  -0.58467
H    -4.61533  -1.00090   1.12451
H    -3.80479  -2.00183  -0.12142
H    -2.42101  -0.22575   1.39985
H     3.47605   0.57151   1.02981
H     3.82564  -1.08070   0.43329
H     3.70559   0.28221  -0.72117
26

C    -4.02313  -0.96835   0.20258
N    -2.79276  -0.23942   0.45478
C    -2.01040   0.16915  -0.54961
O    -2.27988   0.12755  -1.74458
C    -0.65273   0.68104  -0.12091
O    -0.45765   1.20592   1.10960
C     0.75730   1.93045   1.06583
O     1.28492   2.37519   2.04913
C     1.09008   1.89339  -0.34010
C     2.09452   2.60565  -1.01924
N     2.96610   3.16265  -1.55398
O     0.02516   1.38514  -1.02712
C     1.86085  -0.39441   0.07266
C     3.28755  -0.14955   0.20851
C     0.71181  -0.89610   0.01173
C     0.02031  -2.20266   0.13943
F    -0.70527  -2.25809   1.27357
F    -0.83325  -2.41837  -0.88089
F     0.86930  -3.23965   0.16375
H    -4.60459  -0.47221  -0.58458
H    -4.61543  -1.00050   1.12449
H    -3.80504  -2.00150  -0.12146
H    -2.42069  -0.22646   1.39989
H     3.47695   0.56877   1.03030
H     3.82124  -1.08432   0.43283
H     3.70615   0.28014  -0.72067
26

C    -4.02330  -0.96710   0.20260
N    -2.79204  -0.23920   0.45515
C    -2.00720   0.16640  -0.54854
O    -2.27872   0.12880  -1.74305
C    -0.63788   0.65739  -0.12026
O    -0.45588   1.20542   1.11225
C     0.75430   1.92499   1.06749
O     1.28351   2.37630   2.04688
C     1.09646   1.87745  -0.34062
C     2.09586   2.60233  -1.01789
N     2.96455   3.16313  -1.55273
O     0.02618   1.38455  -1.02934
C     1.85092  -0.37626   0.06934
C     3.28352  -0.15532   0.20836
C     0.69544  -0.87730   0.01014
C     0.02001  -2.19803   0.13922
F    -0.70491  -2.25739   1.27359
F    -0.83280  -2.41826  -0.88080
F     0.87395  -3.22924   0.16321
H    -4.60461  -0.47170  -0.58450
H    -4.61553  -1.00010   1.12447
H    -3.80530  -2.00117  -0.12150
H    -2.42036  -0.22716   1.39993
H     3.47786   0.56602   1.03078
H     3.81684  -1.08794   0.43236
H     3.70671   0.27806  -0.72017
26

C    -4.02348  -0.96584   0.20262
N    -2.79132  -0.23898   0.45551
C    -2.00400   0.16365  -0.54747
O    -2.27756   0.13006  -1.74153
C    -0.62303   0.63374  -0.11961
O    -0.45411   1.20492   1.11490
C     0.75130   1.91953   1.06916
O     1.28210   2.37740   2.04463
C     1.10284   1.86151  -0.34113
C     2.09720   2.59901  -1.01654
N     2.96301   3.16361  -1.55148
O     0.02721   1.38395  -1.03156
C     1.84100  -0.35811   0.06602
C     3.27950  -0.16109   0.20822
C     0.67906  -0.85849   0.00855
C     0.01970  -2.19340   0.13902
F    -0.70456  -2.25670   1.27362
F    -0.83235  -2.41814  -0.88072
F     0.87861  -3.21882   0.16267
H    -4.60463  -0.47120  -0.58442
H    -4.61563  -0.99971   1.12445
H    -3.80555  -2.00083  -0.12154
H    -2.42004  -0.22787   1.39997
H     3.47877   0.56328   1.03127
H     3.81244  -1.09155   0.43190
H     3.70727   0.27598  -0.71967
26

C    -4.02366  -0.96459   0.20264
N    -2.79061  -0.23876   0.45588
C    -2.00081   0.16089  -0.54641
O    -2.27640   0.13131  -1.74001
C    -0.60819   0.61010  -0.11896
O    -0.45234   1.20442   1.11755
C     0.74830   1.91408   1.07082
O     1.28069   2.37851   2.04239
C     1.10922   1.84557  -0.34165
C     2.09853   2.59569  -1.01520
N     2.96146   3.16409  -1.55022
O     0.02823   1.38336  -1.03379
C     1.83107  -0.33996   0.06271
C     3.27548  -0.16687   0.20807
C     0.66269  -0.83968   0.00695
C     0.01940  -2.18878   0.13881
F    -0.70420  -2.25600   1.27364
F    -0.83189  -2.41802  -0.88064
F     0.88326  -3.20841   0.16213
H    -4.60465  -0.47070  -0.58434
H    -4.61573  -0.99931   1.12443
H    -3.80580  -2.00050  -0.12159
H    -2.41972  -0.22858   1.40001
H     3.47967   0.56053   1.03176
H     3.80804  -1.09517   0.43144
H     3.70783   0.27390  -0.71918
26

C    -4.02384  -0.96334   0.20266
N    -2.78989  -0.23854   0.45625
C    -1.99761   0.15814  -0.54534
O    -2.27524   0.13257  -1.73848
C    -0.59334   0.58645  -0.11831
O    -0.45057   1.20393   1.12020
C     0.74530   1.90862   1.07249
O     1.27928   2.37962   2.04014
C     1.11560   1.82964  -0.34216
C     2.09987   2.59237  -1.01385
N     2.95992   3.16457  -1.54897
O     0.02925   1.38277  -1.03601
C     1.82114  -0.32180   0.05939
C     3.27146  -0.17264   0.20793
C     0.64632  -0.82087   0.00536
C     0.01910  -2.18415   0.13861
F    -0.70384  -2.25531   1.27366
F    -0.83144  -2.41791  -0.88055
F     0.88791  -3.19800   0.16159
H    -4.60467  -0.47020  -0.58426
H    -4.61583  -0.99891   1.12441
H    -3.80606  -2.00017  -0.12163
H    -2.41939  -0.22929   1.40005
H     3.48058   0.55779   1.03225
H     3.80364  -1.09879   0.43097
H     3.70839   0.27182  -0.71868
26

C    -4.02402  -0.96209   0.20267
N    -2.78917  -0.23832   0.45661
C    -1.99441   0.15539  -0.54427
O    -2.27407   0.13382  -1.73696
C    -0.57849   0.56280  -0.11766
O    -0.44880   1.20343   1.12285
C     0.74230   1.90316   1.07415
O     1.27786   2.38073   2.03789
C     1.12198   1.81370  -0.34268
C     2.10121   2.58905  -1.01251
N     2.95838   3.16505  -1.54772
O     0.03027   1.38218  -1.03823
C     1.81122  -0.30365   0.05608
C     3.26743  -0.17841   0.20778
C     0.62994  -0.80207   0.00377
C     0.01879  -2.17953   0.13841
F    -0.70349  -2.25461   1.27368
F    -0.83099  -2.41779  -0.88047
F     0.89256  -3.18758   0.16106
H    -4.60469  -0.46970  -0.58417
H    -4.61593  -0.99851   1.12439
H    -3.80631  -1.99984  -0.12167
H    -2.41907  -0.22999   1.40009
H     3.48148   0.55504   1.03274
H     3.79924  -1.10241   0.43051
H     3.70895   0.26975  -0.71818
26

C    -4.02420  -0.96083   0.20269
N    -2.78846  -0.23809   0.45698
C    -1.99121   0.15263  -0.54321
O    -2.27291   0.13508  -1.73544
C    -0.56365   0.53915  -0.11701
O    -0.44702   1.20293   1.12551
C     0.73930   1.89770   1.07582
O     1.27645   2.38183   2.03564
C     1.12836   1.79776  -0.34319
C     2.10255   2.58573  -1.01116
N     2.95683   3.16553  -1.54647
O     0.03130   1.38159  -1.04045
C     1.80129  -0.28550   0.05276
C     3.26341  -0.18418   0.20764
C     0.61357  -0.78326   0.00218
C     0.01849  -2.17490   0.13820
F    -0.70313  -2.25392   1.27371
F    -0.83054  -2.41767  -0.88039
F     0.89721  -3.17717   0.16052
H    -4.60471  -0.46920  -0.58409
H    -4.61603  -0.99812   1.12436
H    -3.80657  -1.99950  -0.12171
H    -2.41875  -0.23070   1.40013
H     3.48239   0.55230   1.03323
H     3.79484  -1.10602   0.43004
H     3.70951   0.26767  -0.71768
26

C    -4.02438  -0.95958   0.20271
N    -2.78774  -0.23787   0.45735
C    -1.98802   0.14988  -0.54214
O    -2.27175   0.13633  -1.73391
C    -0.54880   0.51550  -0.11637
O    -0.44525   1.20244   1.12816
C     0.73629   1.89224   1.07748
O     1.27504   2.38294   2.03339
C     1.13474   1.78183  -0.34371
C     2.10388   2.58241  -1.00981
N     2.95529   3.16602  -1.54521
O     0.03232   1.38100  -1.04268
C     1.79137  -0.26735   0.04944
C     3.25939  -0.18995   0.20749
C     0.59719  -0.76445   0.00058
C     0.01819  -2.17027   0.13800
F    -0.70278  -2.25322   1.27373
F    -0.83008  -2.41756  -0.88030
F     0.90187  -3.16676   0.15998
H    -4.60473  -0.46870  -0.58401
H    -4.61613  -0.99772   1.12434
H    -3.80682  -1.99917  -0.12176
H    -2.41842  -0.23141   1.40017
H     3.48330   0.54955   1.03372
H     3.79044  -1.10964   0.42958
H     3.71007   0.26559  -0.71718
