13

C -3.395823956 0.126488081 1.835072108
C -1.113942018 0.203894343 0.135744168
C -0.570886565 -2.176382403 -1.326777033
H -0.324491071 -3.767399992 -0.035026376
H -2.131801288 -2.622384281 -2.601121196
H 1.151586968 -1.973891370 -2.437385555
C -0.187583210 2.630353351 -0.803044521
H -1.167130003 4.362180121 -0.291506639
H 0.864168601 2.705009136 -2.566104723
O 1.054297764 1.377719949 1.218783324
H -3.594287208 1.898555700 2.865432994
H -5.112945653 -0.199820963 0.737798628
H -3.211014996 -1.404125527 3.207654818

