11

O 2.983217942 3.655774040 -0.205688393
C 1.048201923 2.070557627 0.285022440
C -3.140413883 -1.459320780 -0.022211179
N -0.797529866 -1.949027696 0.416728169
C 1.351055252 -0.436161073 -0.284196233
O 3.247341372 -1.529462368 -1.164890432
H 4.257164828 2.631450091 -1.032815433
H -0.524457071 2.887526028 1.293631180
H -4.590865158 -2.656622774 0.780203553
H -3.608894980 0.161829815 -1.170058852
H -0.309249523 -3.635051775 1.194365984

