11

O 2.439514294 3.654571758 -0.264783058
C 0.869851820 1.826015312 0.466780437
C -2.820182293 -1.073339343 -0.137641509
N -0.637230767 -2.165687252 0.460593210
C 1.465980307 -0.692771991 -0.190322236
O 3.399894861 -1.424473890 -1.257736305
H 3.604062119 2.888925219 -1.456384353
H -0.384189806 2.310331671 1.998627621
H -4.496422580 -1.506272877 0.959373098
H -3.009298128 -0.126364550 -1.927410136
H -0.467191113 -3.838527337 1.362824844

