12

N -3.599200307 -0.399856448 -0.193172056
C -0.819284109 -0.197467442 -0.074035974
C 0.603980053 1.956927091 0.229819043
N 3.015839452 1.066316157 0.212722860
C 2.982914471 -1.532256007 -0.094620080
C 0.546166868 -2.457914935 -0.291337376
H -4.389578996 0.493650963 -1.702112112
H -4.498234279 0.151500666 1.415399179
H 0.174095422 3.937911813 0.451462015
H 4.560238839 2.154024146 0.396355712
H 4.774459572 -2.514953087 -0.144492844
H -3.775496901 -2.329180177 -0.413166602

