12

N -3.643579467 -0.393945007 -0.168391038
C -0.945831301 0.123048515 -0.029831954
C 0.667546793 2.120591376 0.265813204
N 3.002008528 1.016600543 0.198210935
C 2.788137734 -1.568698543 -0.129106183
C 0.274025614 -2.225911596 -0.284888308
H -4.561848262 0.313366783 -1.695552079
H -4.649324856 -0.069309088 1.431242001
H 0.424751190 4.127886018 0.510473986
H 4.633899645 1.970523028 0.360291252
H 4.491201928 -2.690628641 -0.215248007
H -2.775197155 -2.510488892 -0.402875191

