15

C 4.462563488 0.489217458 0.005343087
N 1.804764114 0.361288310 0.549534738
C 1.113391843 -2.193726763 0.319822144
C -1.566464188 -2.178587921 -0.156705992
C -2.367141714 0.292257181 0.047170531
N -4.835892943 1.201573078 -0.046419100
C -0.207534655 1.836665544 0.457970496
H 3.422841201 -2.380485524 -0.598398464
H 4.755974744 0.720861069 -2.016875874
H 5.480774096 1.894625069 1.113272941
H 1.723079247 -3.294231241 1.955166017
H -2.755326949 -3.824319657 -0.356605134
H -6.053905164 0.034586996 -0.925468387
H -5.002104201 2.981168042 -0.698174529
H -0.058593925 3.870113050 0.369952647

