13

C -3.808362357 -0.797033113 -0.670756209
O -2.337698496 -0.140525383 1.489003048
C 0.128583920 0.231754991 0.971022069
C 1.454573542 2.474868821 0.507317690
N 3.726553524 1.942013977 -0.434417687
C 3.825762426 -0.575678702 -0.596549083
N 1.745970898 -1.820582047 0.137162634
H -3.681033725 0.682636747 -2.108829872
H -5.750428415 -0.965383315 -0.020000408
H -3.173743059 -2.593610026 -1.461791502
H 0.824432555 4.379213697 0.883453256
H 5.498437782 -1.580111450 -1.198270025
H 1.462096995 -1.100451338 2.446257215

