12

C 4.594363702 -0.375096633 0.000381838
O 2.341817003 -0.614031998 0.917193371
C 0.294533281 0.257007458 -0.626975091
C -1.619104720 1.891083855 0.782416346
O -3.613412843 0.133674993 0.249674962
C -1.877230367 -1.626697470 -0.862752213
H 5.795756708 -1.172731057 1.531978689
H 1.095346659 1.010214724 -2.364036724
H -1.986410333 3.757099510 -0.017110676
H -1.233208038 2.052602545 2.806550149
H -1.628518901 -3.321480260 0.293759570
H -2.420698669 -2.153804957 -2.781772986

