14

C 2.597860833 2.021077170 -0.707911626
C 0.427366930 1.753818193 0.975674877
C -2.084966883 0.774701086 0.027176284
C -1.756986130 -2.105141372 0.082696891
C 0.857870087 -2.570596942 -0.994986725
O 2.316998077 -0.245437535 0.776423571
H 2.329295337 1.654508777 -2.703830362
H 4.209374259 3.153902201 -0.144304797
H 0.500417449 2.679842368 2.802103245
H -3.622689130 1.429384381 1.232813010
H -2.431432238 1.422475164 -1.897858599
H -2.097837354 -2.794742214 2.015942747
H -3.141194870 -3.009455598 -1.154823124
H 1.747657592 -4.165923068 -0.007845803

