13

C -3.030569206 0.859410724 -0.437968936
N -0.592309483 -0.447662664 -0.461844945
C -0.521019054 -2.892308245 -0.207204407
C 3.551254157 1.387012016 0.655023729
C 1.443601698 1.085780053 -1.075122659
O 1.673066492 3.319943875 0.385847795
H -2.946235529 2.315804942 1.012871849
H -3.333032874 1.747345957 -2.266335124
H -4.525565180 -0.485394731 -0.022692304
H -2.253592928 -3.964430340 -0.272942555
H 1.297758871 -3.816106246 -0.161478552
H 3.537764328 0.446644272 2.487376899
H 5.411664903 1.851658933 -0.075326732

