11

O 0.412287256 -0.805848365 -2.688073543
C 2.223353190 0.460972629 -1.204245566
C 1.101811525 1.822143188 1.062612804
H 2.550797147 2.548465187 2.339300889
C -1.371946647 3.190106821 0.902946178
H -2.363941236 4.839337082 0.243588060
C -1.409476154 1.082481725 2.125164589
H -2.447153247 -0.289790918 3.208623680
H 3.302367173 1.815123913 -2.352797105
H 3.548922556 -0.982598739 -0.552984830
H -1.044687032 0.264241991 -2.851835489

