14

O 0.818129865 -0.992620882 -2.830819580
C 2.514793235 0.310614756 -1.204410785
C 0.853881045 1.478850135 0.867703844
C -1.863666121 1.698418774 0.010448334
C -1.203560125 -0.099571956 1.865533756
O -1.016258673 -3.064186735 0.823956816
H -0.185281543 -2.605046573 -0.995112014
H 3.525602655 1.772341686 -2.256932867
H 3.886159206 -1.031377351 -0.440960542
H 1.803718547 2.740311204 2.181468318
H -0.802686040 0.192651323 -2.476737949
H -3.145126766 3.243496252 0.382017320
H -1.724027946 -0.372613892 3.820913124
H -2.737430354 -3.562885478 0.490657864

