17

C -4.153005203 -0.341755836 -0.882714562
C -1.316899775 -0.633955135 -1.238597537
O -0.294404382 1.414637431 -2.629849796
C 0.045964564 -1.004700314 1.278765763
C 2.914395137 -1.081741576 1.020905188
C 4.231266812 1.407055604 1.048597254
O 2.917529134 3.427807042 1.556267283
H -4.962653958 -2.000530159 0.041302478
H -4.570749269 1.309531336 0.287752603
H -5.077349789 -0.092925525 -2.706912147
H -0.955918451 -2.287530519 -2.430080724
H -0.236563778 2.874082705 -1.547944040
H -0.488639939 0.518885459 2.574667204
H -0.620575042 -2.760703050 2.135176528
H 3.529551522 -2.063296373 -0.692741944
H 3.798898740 -2.130091048 2.576399780
H 5.067150823 3.631388749 1.180589823

