9

O 2.883130431 0.272956067 -1.306415877
C 2.428646517 -2.348414925 -1.072444728
C 0.402506902 -2.750799562 0.839671401
H -1.374753778 -1.773403882 0.549717853
C 0.470874605 -4.918483764 2.656851903
O 1.179743472 -2.763536902 3.489047075
H 4.136829128 -3.369618179 -0.496530509
H 1.768484037 -3.160040730 -2.864876281
H 4.172977038 0.539666872 -2.549319986

