14

O 1.136033653 2.131218251 3.089672885
C 2.183053061 -0.291292948 -0.034373438
C 0.297574058 -2.334788714 -0.258311067
C -1.996660756 -1.166846526 -1.448391756
C -2.008911397 1.551002260 -0.951874419
O -1.381036059 0.558829564 -3.391131426
H 2.164439277 3.632673347 3.147264953
H 2.359003514 0.993637215 -1.609674684
H 3.851317268 -0.626173375 1.097678751
H 1.150784515 -3.863616115 -1.386792165
H -0.154794856 -3.136218465 1.590020040
H -3.654646440 -2.324384997 -1.796373994
H -0.120107988 2.353296541 1.630709698
H -3.777727515 2.613521995 -0.990343063

