15

O 5.334898710 0.026748053 1.572699339
C 3.452809706 0.559379701 0.087110592
C 1.704396507 -1.636722202 -0.220266723
C -1.077326646 -0.944639583 -0.495606641
C -2.226677899 0.927667140 1.481485888
C -2.906967115 2.540667289 -0.768864913
C -1.837700982 1.004630243 -2.444012655
H 5.248144596 -1.678890307 2.294925679
H 1.955805576 -3.070803119 1.283028494
H 2.352874754 -2.514028746 -1.991973630
H -2.178981287 -2.688022218 -0.635774790
H -3.788800365 0.193241371 2.613528930
H -0.816049768 1.767473865 2.736971019
H -3.893788579 4.325642474 -0.923485498
H -1.591719112 1.074193084 -4.474792283

