10

O 4.295611646 -0.424154792 -0.111259251
C 1.924998014 0.044253871 -0.052115547
N 0.606322917 -2.076999269 0.006076811
C -1.925841134 -1.441902928 0.067053492
C -2.097400431 1.110890904 0.044237015
N 0.381342631 2.057086733 -0.032429855
H 3.004620262 -2.682127122 -0.053019914
H -3.424761862 -2.816313154 0.124921460
H -3.717369852 2.339582496 0.074638343
H 0.911243965 3.874901805 -0.066845887

