13

C -2.898402857 0.130830407 -0.213472080
C -0.324618533 1.340592160 -0.308914078
C 1.676843658 0.617446941 1.587156613
C 1.933455937 -0.132161757 -1.135337459
O 1.543438782 -2.644800213 -1.835485202
H -4.094638063 1.070904204 1.180408693
H -2.758140468 -1.862148161 0.285817958
H -3.836758477 0.248187143 -2.047348785
H 2.934867712 -3.630622201 -1.224415048
H -0.323441385 3.307147556 -0.887604663
H 2.921202856 2.054833386 2.341081578
H 1.187382406 -0.877969290 2.897899699
H 3.336311378 0.854050176 -2.266240487

