13

C 3.105832141 0.709519424 -0.411441546
N 0.376167937 0.546439197 0.076411473
C -0.926310978 2.642826224 -0.023500955
C -0.494691541 -1.818313034 0.572640098
C -3.076837601 -2.499117295 0.278979077
O -3.977817859 -4.548036273 0.817606978
H 3.667925848 2.678098793 -0.560377533
H 3.538008991 -0.302060135 -2.148751130
H 4.098994109 -0.171239120 1.159005391
H -2.887270348 2.639592014 0.523439038
H -0.017513396 4.334769663 -0.697811267
H 0.910535469 -3.232254819 1.000926418
H -4.292025456 -1.030145533 -0.611161485

