17

C 3.668159191 1.620818891 -0.228277007
C 2.224459549 -0.796739922 0.165447166
O 0.785493614 -0.811871054 2.491109203
C -1.414801893 -1.708129793 1.214545632
C -3.566654461 0.215100911 1.232658543
C -1.815447567 0.614513821 -2.525636294
C -0.168946769 -1.420409316 -1.384987647
H 2.422167118 3.262062830 -0.190658229
H 5.069487262 1.853848899 1.266486228
H 4.657155163 1.577044651 -2.040036641
H 3.530374875 -2.406638728 0.157669602
H -1.960632353 -3.592313465 1.860073393
H -3.182266328 1.821772310 2.451976093
H -5.440332502 -0.564600391 1.596577012
H -3.912434374 0.829909662 -0.902183390
H -1.014535734 2.504518302 -2.187616542
H -0.002733394 -3.065736688 -2.612945855

