11

C -2.938506096 -0.526356529 -0.230474173
C -0.553042523 0.931217085 0.166022059
O 1.035663609 0.147697139 2.308702293
C 1.899070329 -0.238104981 -0.092223208
C 3.376442132 -2.285041315 -1.184741212
N 4.753136262 -0.284680098 -1.367857393
H -4.357254342 0.047772220 1.151152558
H -3.682185627 -0.146776597 -2.116442048
H -2.593560270 -2.546625520 -0.044573254
H -0.678287637 2.974907153 0.005518416
H 3.572657214 1.570628464 -0.715479583

