13

O -2.102623029 -1.371648977 3.675415607
C -2.307808849 -1.102168948 1.029208663
C -1.237328907 1.381883261 0.104606281
N 2.321162617 -0.448947980 -3.095848302
C 3.010692046 0.586393034 -1.067357925
O 1.417446830 1.538553519 0.645089628
H -0.350609184 -1.218724327 4.118704481
H -4.321765796 -1.162070677 0.584600213
H -1.390019024 -2.668969640 0.034536635
H -2.077507076 2.951882522 1.139379791
H -1.548561263 1.609592160 -1.919906903
H 3.839686192 -1.003027151 -4.120763338
H 4.952658100 0.861278076 -0.427122588

