12

O -0.063552964 1.371392466 3.035857756
C 0.538571757 0.462158300 0.820876714
C 3.076645302 -0.362653618 0.434355213
C 5.172767220 -1.078845816 -0.025305512
C -1.273837093 1.316250371 -1.251416059
C -2.957564097 -0.792123416 -0.950873809
N -3.725904063 1.404793980 0.031939187
H 7.044591213 -1.711351720 -0.409971906
H -0.784410253 2.463853683 -2.865642829
H -1.240148114 -1.874204387 0.621882411
H -3.787964804 -2.279100508 -2.081100692
H -1.920881964 1.808968263 2.738904945

