15

O 3.780814194 -0.037801609 -0.364921592
C 1.527672287 0.760231283 0.839066802
C 0.232390166 2.640381372 -0.936292946
C -1.483705730 1.311478699 -2.697233801
O -2.178456132 -0.710354362 2.879479612
C -1.591435218 -1.292459286 -1.670202083
C -0.414791294 -1.378844960 0.978825201
H 4.694678718 -1.124275758 0.760419708
H 1.909063257 1.534779774 2.718432843
H -1.195571175 3.727752517 0.131564793
H 1.476997561 4.035730632 -1.800884619
H -3.624624342 -1.793743514 2.752658372
H -3.403367195 -2.254892247 -1.897438021
H -0.298193113 -2.213079070 -3.028534236
H 0.482226133 -3.195422734 1.420451022

