11

O 2.186530327 3.527502870 -0.743503068
C 1.669890014 1.834032721 0.984619309
C -3.222032648 -1.342018544 -0.353445587
N -0.742749275 -2.095118983 -0.180780801
C 1.228846815 -0.760452702 0.486489771
O 3.460734518 -1.261870591 1.352999875
H 1.834705747 2.851440253 -2.401979911
H 1.937047399 2.511820148 2.897602652
H -3.629592413 0.554121708 0.289136412
H -4.304529471 -2.182204819 -1.866539809
H -0.370642170 -3.943533181 -0.508230730

