16

C -2.632151123 -2.389080470 -1.201203466
C -1.263641378 1.475442260 -0.966282220
O -3.424245777 2.704580716 -0.413833978
C 0.312142240 1.207551718 1.379769621
N 2.425025159 -0.483408667 1.080303721
C 4.806822247 0.335716366 0.622793203
O 5.445718770 2.521145360 0.476615026
H -1.348362449 -3.937288449 -1.645730470
H -4.306030953 -2.432472040 -2.397879092
H -3.157360494 -2.359712067 0.781859709
H -1.398542860 -0.366338149 -2.311084009
H -4.147556328 3.344988207 -1.949257864
H 1.081131100 3.087449093 1.750714507
H -0.809027451 0.668940730 3.039393660
H 2.128666894 -2.355826223 1.161361917
H 6.155069196 -1.243802976 0.406625938

