12

O 4.126600759 -1.776629247 1.387718093
C 3.531432177 0.185168027 0.128609563
C 1.173722596 -0.122131185 -1.076605489
C -1.129143844 -0.308508486 0.575498649
C -3.482727510 1.011454573 -0.012939673
O -3.231129468 -1.631213443 -0.423381497
H 4.862100270 1.760476152 0.032296572
H 2.270119150 -2.481865948 0.024192557
H 0.845520349 0.820577192 -2.871403603
H -0.740009645 -0.733446588 2.550623576
H -4.778669561 1.550324963 1.487004020
H -3.582632133 2.153134766 -1.717763731

