12

C -3.222291975 -1.142002939 0.314256144
C -0.502053139 -0.526096087 0.146475280
C 0.863905816 1.628138405 0.098300057
O 0.002643009 4.017497062 0.209930903
N 3.399005405 1.094374641 -0.090840760
C 3.476614718 -1.337665843 -0.149234374
O 1.226567540 -2.463622097 -0.016429921
H -3.869570264 -2.179481686 -1.348617052
H -3.642204691 -2.282042471 1.982673079
H -4.296668362 0.609381495 0.439067245
H 1.445079237 5.117512837 0.132874505
H 5.118972726 -2.535993335 -0.287718172

