12

C -2.998076821 -1.261904795 0.104855857
C -0.351593372 -0.576137736 0.649030633
C 1.053017153 1.620317490 0.646539293
O 0.137393048 3.895074084 0.152303138
N 3.636554126 1.178771775 0.745391925
C 2.982464565 -1.102269123 -0.144272691
O 1.470242357 -2.580566759 1.289683731
H -3.150536164 -2.598961428 -1.459661138
H -3.889562471 -2.116030031 1.761804724
H -4.043362027 0.443117022 -0.389441053
H 1.565495136 5.021317878 0.032832442
H 3.584772739 -1.887110838 -1.960496273

