13

N 4.583236485 -0.230188560 -0.027360078
C 2.510102746 -0.536598599 0.814935472
C 0.145781826 -1.895484857 1.390752747
C -1.701355201 -0.882936945 -0.607199372
C -1.214101943 2.006396719 -0.821540008
O 1.141180719 2.517456690 0.296685244
H 3.341870178 1.872261748 -0.521639433
H 0.459482655 -3.924111653 1.231460778
H -0.468569895 -1.443027996 3.304930719
H -3.653901151 -1.300186848 -0.103125718
H -1.307994630 -1.814765168 -2.404985010
H -2.669327989 3.061072712 0.200401166
H -1.266927744 2.605957100 -2.798530057

