11

N -2.346279251 3.029185568 0.382954927
C -0.862352215 1.171951281 0.152300134
C -1.256076181 -1.672319653 -0.048503506
N 1.253798021 -2.791550107 -0.316778551
C 2.796572603 -0.954349298 -0.258413207
N 1.739822541 1.412582996 0.021141576
H -4.171491240 2.444778013 0.439603133
H -2.193106290 -2.409173796 1.637581026
H -2.438959791 -2.147179067 -1.672572026
H 4.829250461 -1.159687374 -0.411183202
H 2.648821342 3.075761421 0.073869697

