11

N -2.324994113 3.302129672 0.210320093
C -1.026220402 1.267140281 0.035144635
C -1.476609279 -1.387924489 -0.284095076
N 0.941758885 -2.693926818 -0.527322274
C 2.672043374 -0.955175147 -0.125044973
N 1.636592265 1.343051090 0.147072131
H -4.195658664 2.923787057 0.072434393
H -0.217669804 -3.236041074 1.211260948
H -3.134447054 -2.300094269 -1.033569263
H 4.670423176 -1.326687744 0.029528123
H 2.574170735 2.989072691 0.316843444

