9

O -4.143761116 -0.350089377 -0.472611452
C -1.704583250 -0.132977741 -0.195007226
N -0.063301895 -1.898198976 0.471603812
N 4.085760848 0.113081929 0.522735266
N 1.787463860 0.214029323 0.190238257
C 0.018251882 1.932216182 -0.478710694
H -4.628339769 -2.071190269 -0.107085696
H 4.488512262 -1.704539767 1.031688135
H 0.177881526 3.894046092 -0.960433442

