10

C -3.100232750 -1.076747521 0.158462002
C -1.484591331 0.960599171 1.267573426
O -0.743974442 2.802756901 -0.379656750
H -1.413382199 2.458213625 -2.026565464
C -0.762223413 1.077366633 3.664728526
H 0.407469928 2.614783066 4.331522300
H -1.334624612 -0.368345265 4.985904260
H -4.847148983 -0.282058443 -0.610514745
H -2.107759947 -2.035897876 -1.381117261
H -3.596808178 -2.478298768 1.577719888

