14

C 4.412509518 0.209175202 0.227998556
C 2.653203485 -0.318454001 -1.560454972
C 0.557883057 -0.510092356 -2.671617770
C -1.546324243 0.366003573 -1.125899354
C -3.450498231 -1.604884777 -0.363686221
O -0.474193663 1.388692757 1.587130101
H 5.171950858 -1.303944436 1.387528667
H 1.646636594 1.023743632 1.333944198
H 5.605174635 1.867994539 0.026034700
H -2.424763394 2.079743321 -1.861870598
H -2.496846562 -3.191496110 0.540138339
H -4.876320194 -0.843487627 0.913150056
H -4.367352717 -2.302798505 -2.071719941
H -0.710758366 3.187376734 1.692333762

