11

O -2.795597050 3.614223724 1.079686272
C -1.515129286 1.756617955 0.939551722
C -1.998747316 -0.822477123 -0.318154555
N 0.641885843 -1.512881457 0.221573449
C 2.464615772 0.448020351 -0.448306191
C 1.034398551 1.059766196 1.890453102
H -3.291002795 -1.998655664 0.767851774
H -2.488108299 -0.857885961 -2.321785887
H 2.105803929 1.326236704 -2.275853656
H 4.407181379 -0.168327109 -0.215427172
H 1.181991887 -3.199762509 0.910787653

