17

C -2.159722597 -0.148497362 1.423931198
C -0.528061988 -3.617272174 -1.210057740
O 1.296681633 -2.036413583 -1.763335402
C 2.500450573 -0.984721166 0.298352209
C 2.941923306 1.722719235 -0.010537037
C 0.882692830 3.141324391 -0.392203246
C -1.768255247 2.076830308 -0.388202753
H -2.131981323 0.459328945 3.404400138
H -3.951685176 -1.090727696 1.093677502
H -0.326035525 -4.845537973 0.422373461
H -1.592887189 -4.264398964 -2.836957996
H 0.193464907 -0.982725804 1.556639634
H 3.812641963 -2.239327347 1.250524014
H 4.805868823 2.561856524 0.155742667
H 1.081938825 5.161571443 -0.687187302
H -2.254274816 1.469276669 -2.307500124
H -3.089804599 3.595747985 0.079029405

