8

O -3.562617987 2.087950250 0.883610236
C -2.734414522 0.147579825 0.036615976
C 1.490820039 -2.274491201 -1.165792172
C -0.105914047 -0.157434935 -0.752248589
C 2.207230822 0.778872997 -0.018217886
O 3.759355635 -0.718952011 -1.367346411
H -3.929871085 -1.541092857 -0.241341194
H 2.882979479 1.700637710 1.691571371

