8

O -2.556566028 0.893536721 2.090260195
C -2.288115352 -0.287301847 0.194630245
C 0.585907865 -1.677110941 -0.722996781
C 0.130190036 0.482166455 -2.121250475
C 2.262428663 0.943786844 -0.539533835
O 3.235793709 -1.353517055 -0.071554347
H -3.720631670 -1.356681515 -0.840368596
H 2.428469657 2.360675260 0.945743183

