12

O 2.342309144 2.666013541 0.013409402
C 2.656100718 0.348100100 -0.790302722
O 2.249131284 -1.489602677 0.913388351
C -0.487789581 -1.590790651 1.304361404
C -1.773474671 -0.673526586 -1.008754570
C -1.933665016 0.758280878 1.169968826
H 4.114277836 0.039973093 -2.198865363
H -0.943930142 -3.254578815 2.394484709
H 0.374137654 -0.097523436 -2.177147610
H -3.113902443 -1.391942651 -2.374586668
H 0.497725591 2.597677775 0.794359831
H -3.425741515 1.644508422 2.231978826

