15

C -1.794502825 1.647307881 -2.447006378
C -1.393296508 -1.008092580 -0.782795577
O 0.081788972 -2.688740975 -1.817009029
C -0.306354576 0.480442118 1.205904557
O 1.085252498 -2.941730479 2.886455082
C 2.367770275 1.383516627 1.008234461
O 3.249241113 2.821022843 2.526727800
H -2.684429470 0.797455240 -4.096131495
H -3.058734478 3.050332586 -1.629220764
H -0.015273447 2.490081305 -3.040603274
H -3.371959096 -1.547855148 -0.386627685
H 1.037880938 -3.448817433 1.032464303
H -1.456098192 1.397194767 2.640467033
H 2.807747120 -3.008240486 3.452284608
H 3.432790439 0.628860320 -0.612603875

