15

C 1.435034284 2.282255368 0.270359375
C 2.559195430 -0.348517200 0.032465835
C 0.601889109 -2.337843476 0.170015277
O -1.693704815 -2.284282704 1.457245841
C -3.025123072 -0.072264695 1.282692444
C -0.578015991 1.625785658 -1.733335017
C 0.722017109 -0.817056406 -2.223543259
H 0.891576584 2.974875273 2.134695291
H 2.678839453 3.686405876 -0.590352596
H 4.544059476 -0.842585000 0.167281788
H 1.285963333 -4.263910885 0.078141441
H -2.594531948 1.316921658 2.738797817
H -5.045955655 -0.482938938 1.178446458
H -2.775593600 1.212229697 -0.822848775
H 0.956200531 -1.735565102 -4.035093284

