14

C 4.027933755 -0.734843096 -0.625379917
C 1.264541284 -0.751455546 -0.097594207
C 0.092007231 -1.398972319 2.018653408
H 0.876355048 -2.062296462 3.785358361
O -2.472692763 -1.172728034 1.991146101
C -3.166567693 -0.584218148 -0.569413107
H -4.021116568 -2.275188642 -1.395400264
H -4.577374724 0.914542974 -0.517710938
C -0.718381144 0.146520236 -1.946106595
H -0.562467022 2.185811003 -2.267555528
H -0.571885247 -0.774345402 -3.788330277
H 4.679671401 1.165176556 -1.116407619
H 5.106794178 -1.374146609 1.010297248
H 4.498106099 -1.964946352 -2.218554193

