9

O -0.412788241 2.260462876 0.759215876
C -1.687823893 0.906157295 -0.837264419
C -0.468283733 -1.423506898 -1.189588227
C 2.001667982 -1.382248356 0.298971718
C 1.724163061 0.898292179 1.474782538
H -3.395094031 1.721331609 -1.601786609
H -0.948491544 -2.766982912 -2.650620437
H -0.600669688 -2.427788562 0.772423059
H 2.900418703 1.938350611 2.772470847

