11

C -3.810608674 1.328939390 -0.552287804
C -1.407157365 0.681914740 -0.759118934
O 0.253411007 0.951915577 1.174874252
C 2.646708553 -0.098335678 0.955125749
C 3.344342223 -1.907190425 -0.934306447
N 2.933412452 -2.889538719 1.183141861
H 3.852911724 -2.499388698 -2.824403450
H -4.570988754 2.060029037 1.198922623
H -5.047550735 1.137453707 -2.164008892
H -0.621521360 -0.058199086 -2.506919861
H 3.998506958 1.072394442 1.949977245

