19

C 3.822166919 0.393017151 -1.075018440
C 1.932417627 -0.125873637 1.034464011
C -0.877871213 -0.274337778 0.269568109
C -1.333936714 -2.293757941 -1.744974010
C -2.571133133 -0.411360061 2.511507190
C -1.709022406 2.213580623 -0.738351278
O -2.045798133 4.184485696 0.650059286
H 3.483701550 2.213640905 -1.990842705
H 3.773539277 -1.066253664 -2.531500549
H 5.739279560 0.443935255 -0.318141006
H 2.122153197 1.311897141 2.508608974
H 2.339982872 -1.936383689 1.945951146
H -0.383000318 -1.855301872 -3.529615867
H -0.636266799 -4.105434484 -1.056164114
H -3.351362272 -2.499026664 -2.127399001
H -1.694090470 -0.628087781 4.352766110
H -4.375338908 -1.338222462 2.246863689
H -2.083768797 2.553143299 -2.739663916
H -2.159507432 3.356492841 2.377490912

