11

C 1.085600888 1.145171084 2.488211175
N -0.317382866 0.328307581 0.285268993
C -2.752928886 1.513829873 -0.091815594
H -3.354708656 2.912726679 1.286739274
H -3.252843876 1.937186483 -2.031946119
C -2.570268224 -1.140854703 0.778740017
H -3.050866773 -1.519012220 2.739938512
H -2.937800963 -2.683220518 -0.516885845
H 2.394268865 -0.344153161 3.055756818
H -0.138670711 1.597179418 4.109328851
H 2.185121064 2.824672150 2.015105390

