15

N 4.836848332 -0.229363940 -2.126459959
C 2.705456585 -1.436760530 -2.016108419
O 1.399549876 -3.026707116 -2.864760989
C 1.139250798 0.346287286 0.733463067
N -1.171805564 1.359090783 -0.260529738
C -3.321134043 1.426648587 1.449431446
C -3.225759301 -0.410903145 -0.653391988
H 3.283154441 0.925016119 -0.490860367
H 6.045171474 -0.680305033 -3.550664808
H 0.961012038 -1.324993888 1.950734402
H 2.028551717 1.807948964 1.938285642
H -3.046839956 0.695058427 3.348546372
H -4.491803239 3.101169733 1.325789633
H -2.880884397 -2.377420293 -0.186997886
H -4.333918133 -0.113901636 -2.347495819

