13

N 2.793326148 -2.972937492 2.001277640
C 1.170412023 -1.436749022 1.205438305
C 1.266456031 1.368441583 0.740125429
C 0.553439007 1.692024810 -2.051757705
C -1.983621608 0.695922448 -1.184141299
C -1.596766381 -1.299420753 0.775719818
N -1.580822308 1.460529524 1.460731744
H 2.625508641 2.563436240 1.702823991
H 1.643042240 0.653623366 -3.460191902
H 0.407093381 3.679591392 -2.570340903
H -3.807837655 0.914528914 -2.085023235
H 2.024289875 -4.716102335 2.272957480
H -3.082718844 -2.565674300 1.379682751

