13

N 3.190398746 -3.126470124 2.059034549
C 1.970692858 -1.322550812 1.418250908
C 1.235097745 1.335046021 0.887693820
C 0.610637842 1.518212771 -1.948780463
C -1.945276098 0.461028867 -1.185106401
C -1.710999739 -1.575876763 0.700020735
N -1.534801506 1.101118525 1.538864662
H 2.382024157 2.770191591 1.810792378
H 1.791617856 0.483873804 -3.285326398
H 0.451791753 3.490667364 -2.512529607
H -3.716145914 0.901212373 -2.115637251
H 0.828702864 -3.444486766 1.419737272
H -3.421268873 -2.562220712 1.268220619

