8

C -5.037428644 0.875725504 0.338748771
N -3.561641358 -0.757115710 1.529653797
C -3.488288482 -1.588846048 3.888790555
H -2.065683721 -2.954306266 4.380999998
H -4.846943476 -0.887156930 5.234366698
H -2.216434355 -1.525641474 0.408939001
H -4.687632666 1.226637952 -1.632544396
H -6.532829001 1.799998149 1.367462799

