12

C 1.494257715 1.205285709 -1.781103439
H 3.476300854 1.638464001 -1.730337118
C -0.625497552 0.769597106 -2.821257679
H -1.910694261 0.520661046 -4.371701771
N -0.714918372 1.175535373 -0.039845291
C -1.002503318 -1.128660754 1.509653389
C 0.030028032 -3.600770707 0.468252175
H 2.064090625 -3.506370818 0.127921552
H -0.316057620 -5.114805975 1.824985922
H -0.869816501 -4.128553885 -1.313146722
H -0.111483278 -0.708421229 3.327068652
H -3.027472947 -1.317604397 1.880524424

