12

O 0.105004994 -0.747341480 3.311410042
C -0.180259463 -1.189857966 0.879259557
C -0.060821988 0.714583021 -0.970668822
C 0.513751602 1.287145678 4.554463987
C -0.340022201 0.360508401 -3.489271896
C -0.797304025 -2.062598535 -4.549786329
N -1.166751057 -4.037586740 -5.385888888
H -0.507891845 -3.161193293 0.482025142
H 0.285570650 2.640399400 -0.360044095
H 0.684178858 3.092105341 3.613875750
H 0.665916148 1.044727699 6.570478090
H -0.216521210 1.931780600 -4.787339662

