12

O -0.807681097 -0.836837757 3.712039917
C -1.858985534 -1.122771385 1.399172422
C -1.061721855 1.068686800 -0.075758175
C 1.017776217 0.595661252 2.427172096
C -0.258941499 0.856047673 -2.596222119
C 0.930373228 -1.375396096 -3.400456922
N 1.952952506 -3.233161774 -3.940677446
H -2.207007361 -3.035681860 0.713021106
H -1.996644901 2.820721696 0.464447873
H 2.583460459 -0.524831955 1.727516154
H 1.509938851 2.361202758 3.350070852
H -0.580219128 2.355418401 -3.938486384

