13

C -1.793856236 -0.190620756 -0.590921441
H -2.218091815 -1.874829735 0.492455164
H -3.245570264 0.332322833 -1.931608578
C -0.352228490 1.876604773 0.705290708
C 0.389734073 1.563712180 3.429702891
O 2.690012628 2.779502461 4.054999489
H 2.524839057 4.547491087 3.695095234
H -1.142597711 2.222952606 4.663859288
H 0.690412838 -0.437432707 3.840480539
H -0.849136132 3.794363265 0.166558684
C 0.912251737 0.300871176 -1.274004069
H 2.324137651 -1.039098451 -0.643786851
H 1.309418708 1.154378906 -3.088751663

