17

C -4.420585395 0.426031045 0.370839401
C -1.687342182 0.088301762 -0.162693495
C -0.366836980 -2.292887137 0.094951765
C 2.328308522 -2.185860079 0.959109216
C 3.218129154 0.441973303 1.387526853
C 2.219920805 2.221025047 -0.709589420
O -0.486731278 2.212434598 -0.583343450
H -5.450802379 -1.317808658 -0.008028161
H -5.194275175 1.960670336 -0.764530618
H -4.717966701 0.909168120 2.363244588
H 2.512591647 1.241466991 3.172566837
H -0.271745924 -2.987303681 -1.874778637
H -1.634653368 -3.620642444 1.060161187
H 3.590160292 -3.311923839 -0.215923811
H 5.277039265 0.557704723 1.434580410
H 2.728760858 4.210570569 -0.503323092
H 2.831623791 1.549838888 -2.559705921

