12

C -1.559426243 -1.884948878 -0.152427256
H -3.347007172 -2.277250163 0.776118910
H -0.942830227 -3.472497572 -1.306930941
C -1.088144497 0.679748150 -1.430506595
H -1.430680431 0.988337194 -3.432508945
O -1.821189292 2.763718089 0.085698154
C 0.291000646 2.755802196 1.969971228
H 0.800076461 4.667998204 2.491760724
C 0.058923021 0.591916136 3.559003697
H 0.083621893 0.206307524 5.565193397
N 0.522032250 -1.133279680 1.668393747
C 1.473139383 0.704918206 -0.044498005

