8

N 3.426776707 -0.265372766 0.978671888
C 1.090472470 -0.235862236 -0.014112550
O 0.468460933 -1.028348819 -2.067400405
C -0.896820479 0.941598466 1.733367615
O -0.410949764 1.755649678 3.788467055
H -2.812818408 0.961141522 0.906281960
H 4.867594913 -1.001592962 -0.010810065
H 3.710658905 0.452128219 2.714507655

