14

C 3.055578106 -0.446657708 0.668442258
C 1.217006717 1.003246000 -0.962734259
C -2.197337822 0.295944018 -1.928922767
C -2.824834175 -1.499749316 0.244604562
O -2.040790264 0.238665777 2.193578552
C -1.248381858 1.882991802 0.219222233
H 2.139789293 -2.019555846 1.627256866
H 3.820482663 0.794526543 2.127468127
H 4.615973666 -1.182151210 -0.457000481
H 2.012465877 2.515533251 -2.102817519
H 0.445786317 -0.299729083 -2.618742288
H -1.902101374 -3.344811423 0.348365625
H -4.875976340 -1.757210894 0.286262894
H -1.520234684 3.888445227 0.551797175

