14

O 4.091169773 1.160478923 -2.923667702
C 2.726078392 1.438657286 -1.099556818
C 2.300906360 -0.876926123 1.563310670
C 0.589814194 -0.480872673 -0.455011412
C -3.615890822 -1.215289787 0.064533183
C -2.182498048 1.000810785 -0.079869350
H 2.510042255 3.242021774 -0.085135563
H 3.346893807 -2.623691084 1.744579833
H 2.371510931 0.424436966 3.137612686
H 0.524639240 -1.911403778 -1.918387544
H -4.499302938 -2.009427368 -1.599427342
H -3.636187085 -2.338517257 1.772778250
H -2.461792899 2.177121740 -1.737890504
H -1.927408605 2.111716712 1.627400051

