9

C -1.919631891 0.066106702 -0.050890514
C 0.906835669 0.466197495 -0.119773676
O 2.088972139 -1.836207474 0.569894194
H -2.521751301 -0.487511848 1.841532496
H -2.909649694 1.797819181 -0.575784338
H -2.465138092 -1.425352253 -1.365392283
H 1.440764312 1.981557630 1.192544344
H 1.495377567 1.046986772 -2.022486377
H 3.884221292 -1.609596204 0.530356153

