9

C -1.850120186 -0.654664303 0.200996486
C 1.272756000 1.652652745 0.113669275
O 1.374121343 -1.264683562 0.480297724
H -2.500292667 0.043799127 2.001697934
H -2.614942200 0.419881895 -1.360879503
H -2.240005079 -2.683821697 -0.025101119
H 2.689555844 2.412544689 1.412109695
H 1.890059321 2.008100856 -1.827809872
H 2.137139727 -2.104693885 -0.949980573

