10

O -0.483692296 -2.623388557 -0.816577322
C -2.307834492 -1.440294696 0.101752908
O -2.319719301 0.736977636 1.077718689
C 0.322650327 2.308403319 1.214403581
C 2.445588667 1.018878287 0.180434792
C 2.269782381 -1.198234121 -0.771472281
H -4.145231814 -2.399217169 0.065586630
H -0.246152248 4.006348906 0.206417147
H 0.407782848 2.648114490 3.239333298
H 3.423440754 -2.617081615 -1.654434567

