12

C -2.913529491 0.780828939 -0.486314102
C -0.268472332 -0.074001070 0.057378888
C 0.331079904 -2.507971002 0.136265940
C 1.982656336 -4.262291976 0.440390601
O 3.240825936 -6.055158525 0.660149649
C 1.620429267 1.998030996 0.490843511
H -2.937668834 1.964787841 -2.180780967
H -4.179019267 -0.813689594 -0.759538075
H -3.615238205 1.952552942 1.065110663
H 1.694046610 3.239264777 -1.160270751
H 3.499441514 1.254306131 0.861046112
H 1.027920607 3.170405443 2.086815659

