13

C -2.444365844 -1.785361615 0.826515902
C -0.248422149 -0.183080068 -0.013361932
C 2.511810340 -0.480817248 1.211769908
C 2.120766478 -1.275010235 -1.386449558
C -0.479482969 2.311802407 -0.476801220
N -0.735348484 4.510910543 -0.979522340
H -1.692781513 -3.586091560 1.481601671
H -3.432874531 -0.909041319 2.408050826
H -3.787262657 -2.116201051 -0.704077561
H -0.115535966 5.888858450 0.198439895
H 3.505242179 1.327688921 1.373559093
H 1.770664384 -3.271226735 -1.733433151
H 2.801910153 -0.269373580 -3.051486679

