12

O 1.426985411 4.376305975 0.696646496
C 0.742209853 2.220904086 0.389551091
N 2.200961466 0.199836119 -0.184141036
C 0.908077710 -2.121476978 -0.812096177
C -1.869676225 -2.061231904 -0.006216953
O -2.031155741 -0.801160332 2.298050795
C -1.952416579 1.317988371 0.669286683
H 4.092177734 0.383953779 -0.214150360
H 1.684463166 -3.746265332 0.216650052
H 1.012316950 -2.543656118 -2.829897186
H -2.714971829 0.403567473 -1.248366060
H -3.396556320 2.707530541 1.107938301

