13

N -4.002255948 -0.539032264 -0.797582627
C -1.900985925 0.273494204 0.247827887
O -1.758266741 2.718562365 0.549914195
C -0.277928125 -1.619018227 1.665170612
O 2.208907651 -0.923095893 1.740786491
C 2.694608253 0.559439454 -0.513546227
N 5.001429909 0.633259470 -1.070819866
H -5.203044071 0.710283951 -1.581830817
H -4.362475372 -2.396091487 -0.951765892
H -0.576474598 -3.473245469 0.770957312
H -1.059179210 -1.707735937 3.589287503
H 0.110905589 2.952873513 0.360452200
H 5.228819860 1.746976326 -2.616417414

