16

C -0.119454350 -2.198278565 -0.445944771
C -1.548810858 -1.436319354 1.901090597
C -2.773688208 0.756208340 0.517610177
C 0.717851491 3.178655194 -0.611069928
C 2.626072158 1.755687019 -0.988807528
C 2.427518275 -1.311356585 -0.766397667
H -1.376940078 0.407110030 -1.348281531
H -0.930097328 -3.592735100 -1.703033070
H -0.293363805 -0.839086682 3.421408864
H -2.869785903 -2.828569238 2.643660727
H -3.236180668 2.532584194 1.437117669
H -4.467588251 0.056261814 -0.434161875
H 0.198264774 5.142539841 -0.630625362
H 4.555721865 2.289564904 -1.421104092
H 3.646790168 -1.656829153 0.868945885
H 3.330418702 -2.087092296 -2.446852119

