10

O -2.738966267 1.788589437 1.726330275
C -3.418894413 -0.449301945 0.636097649
C -2.358000391 -1.303060271 -1.464058795
C -0.321217140 0.020168386 -2.910104003
H -0.895055891 0.350083745 -4.866541372
H 0.137218343 1.838064886 -2.060543571
H 1.405063379 -1.113092775 -2.967553756
H -3.036437958 -3.104924014 -2.162044446
H -4.892028637 -1.502669736 1.600737603
H -3.751830935 2.079076512 3.194799275

