14

C -3.599538681 -0.980949367 -0.356455618
C -1.061146811 0.254239123 -0.062133987
C 1.035422404 -0.848266537 -1.535035359
C 3.349026098 -1.136190784 -0.699107222
N 5.540911833 -1.148442634 0.016922630
O 1.360254665 3.625712522 1.814511661
C -0.771318854 2.274034227 1.419731414
H -5.041200216 0.012438820 0.730379204
H -4.196669139 -0.989152403 -2.336162659
H -3.555960936 -2.947113571 0.276469672
H 0.654154795 -1.556423997 -3.422082854
H 6.109975379 -2.725012359 0.955526541
H -2.344441889 3.041290567 2.482541260
H 2.697848132 3.014748192 0.742394649

