14

O 3.706250061 2.185565735 0.177192816
C 2.585589670 -0.239877242 0.071700253
C -0.174489770 0.060040964 0.745839904
C -1.790319368 1.309485624 -1.303901955
O -2.756213041 -1.156044757 -1.988859929
C -1.681475943 -2.318345811 0.021808951
H 5.446274085 2.054214293 -0.304112491
H 3.473160450 -1.546734861 1.412320985
H 2.756685171 -1.065976252 -1.824633412
H -0.363440349 0.814419954 2.647038461
H -3.331464420 2.481249954 -0.579596407
H -0.830673886 2.234208382 -2.876084908
H -3.946309416 -1.885444780 2.363777586
H -3.210148538 -3.261520554 1.625719291

