13

C 0.521091488 -0.851840576 2.867303389
C -3.540682160 0.264037995 -2.748374193
C -1.159521456 0.507277401 -2.186703804
C 1.220030751 0.750284634 -1.616487279
C 2.378094699 0.139326578 0.912756049
H -0.385681046 -2.586353403 2.215928664
H 1.481108415 -1.257612207 4.646117311
H -4.273845157 -1.483624491 -3.526480698
H -4.861126135 1.803153084 -2.457488329
H -0.968292473 0.525184540 3.242515654
H 2.486208633 1.449312280 -3.075651798
H 3.890735310 -1.240290467 0.611931322
H 3.310885680 1.843417592 1.625417256

