13

C -0.215667904 -1.127488784 1.777210981
C -2.606011789 0.058091693 -0.739562914
C -0.987277927 1.944644589 -2.297211303
C 1.442354327 1.607862910 -1.658567342
C 2.189490148 -0.315577101 0.470506486
H -0.675119587 -3.119136758 1.735182168
H -0.546895509 -0.326386996 3.642263216
H -2.649657943 -1.731184358 -1.724357476
H -4.423300629 0.629410287 0.019767707
H -1.128358908 1.164211586 0.409489781
H 2.995391293 2.518164185 -2.637956381
H 3.127778664 -1.930544643 -0.410959836
H 3.525221913 0.553323223 1.777341693

