19

C    -3.57874   0.80979  -0.21845
N    -2.17357   0.54712   0.02940
C    -1.56642  -0.49515  -0.55074
O    -2.14100  -1.28988  -1.31639
C    -0.17889  -0.79119  -0.22907
C     0.82294  -1.40797  -0.08311
F     1.96524  -2.07574   0.05343
C     2.31716   0.79556   0.83435
C     2.66915   0.97704  -0.58918
O     1.22287   1.13071   1.35186
O     0.26989   1.79371   0.60496
H    -3.77151   1.03590  -1.28507
H    -4.20051  -0.07534   0.03734
H    -3.91204   1.65398   0.38641
H    -1.60538   1.17847   0.58645
H     2.89997   0.13565   1.47777
H     3.41927   1.79516  -0.46896
H     1.86605   1.32195  -1.23805
H     3.22079   0.13175  -1.04634
19

C    -3.58004   0.80870  -0.21915
N    -2.17510   0.54733   0.02938
C    -1.56463  -0.49365  -0.54951
O    -2.13539  -1.29102  -1.31428
C    -0.17464  -0.77854  -0.22523
C     0.83871  -1.38131  -0.07187
F     1.95641  -2.07581   0.05074
C     2.30519   0.77385   0.82525
C     2.67084   0.97698  -0.59017
O     1.22316   1.13381   1.35329
O     0.26671   1.77663   0.60022
H    -3.77172   1.03550  -1.28531
H    -4.20080  -0.07569   0.03718
H    -3.91252   1.65369   0.38611
H    -1.60686   1.17882   0.58701
H     2.89819   0.13189   1.47532
H     3.41871   1.79518  -0.46578
H     1.86751   1.32277  -1.23915
H     3.22196   0.13316  -1.04837
19

C    -3.58133   0.80760  -0.21985
N    -2.17663   0.54753   0.02936
C    -1.56284  -0.49214  -0.54829
O    -2.12978  -1.29216  -1.31218
C    -0.17038  -0.76588  -0.22138
C     0.85448  -1.35464  -0.06063
F     1.94758  -2.07588   0.04806
C     2.29322   0.75215   0.81615
C     2.67254   0.97692  -0.59116
O     1.22345   1.13691   1.35473
O     0.26353   1.75955   0.59547
H    -3.77193   1.03510  -1.28556
H    -4.20109  -0.07605   0.03703
H    -3.91299   1.65340   0.38580
H    -1.60834   1.17917   0.58756
H     2.89641   0.12812   1.47287
H     3.41815   1.79520  -0.46261
H     1.86896   1.32359  -1.24026
H     3.22314   0.13458  -1.05039
19

C    -3.58263   0.80650  -0.22055
N    -2.17816   0.54773   0.02934
C    -1.56105  -0.49063  -0.54706
O    -2.12418  -1.29330  -1.31007
C    -0.16612  -0.75323  -0.21753
C     0.87024  -1.32797  -0.04940
F     1.93875  -2.07595   0.04538
C     2.28125   0.73044   0.80705
C     2.67423   0.97686  -0.59216
O     1.22374   1.14001   1.35616
O     0.26035   1.74246   0.59073
H    -3.77214   1.03470  -1.28580
H    -4.20138  -0.07641   0.03687
H    -3.91347   1.65312   0.38550
H    -1.60982   1.17951   0.58812
H     2.89463   0.12436   1.47042
H     3.41759   1.79522  -0.45943
H     1.87041   1.32442  -1.24137
H     3.22432   0.13600  -1.05241
19

C    -3.58393   0.80541  -0.22125
N    -2.17969   0.54793   0.02933
C    -1.55926  -0.48913  -0.54584
O    -2.11857  -1.29444  -1.30796
C    -0.16186  -0.74058  -0.21369
C     0.88601  -1.30131  -0.03816
F     1.92993  -2.07602   0.04269
C     2.26928   0.70874   0.79796
C     2.67592   0.97680  -0.59315
O     1.22403   1.14311   1.35760
O     0.25717   1.72538   0.58599
H    -3.77235   1.03431  -1.28604
H    -4.20166  -0.07677   0.03671
H    -3.91394   1.65283   0.38519
H    -1.61130   1.17986   0.58867
H     2.89285   0.12059   1.46797
H     3.41703   1.79524  -0.45625
H     1.87187   1.32524  -1.24248
H     3.22549   0.13741  -1.05443
19

C    -3.58522   0.80431  -0.22195
N    -2.18121   0.54813   0.02931
C    -1.55747  -0.48762  -0.54461
O    -2.11296  -1.29558  -1.30585
C    -0.15760  -0.72792  -0.20984
C     0.90178  -1.27464  -0.02692
F     1.92110  -2.07610   0.04001
C     2.25732   0.68703   0.78886
C     2.67761   0.97674  -0.59414
O     1.22432   1.14621   1.35903
O     0.25399   1.70830   0.58125
H    -3.77256   1.03391  -1.28629
H    -4.20195  -0.07712   0.03655
H    -3.91442   1.65255   0.38488
H    -1.61277   1.18020   0.58923
H     2.89106   0.11683   1.46551
H     3.41647   1.79526  -0.45307
H     1.87332   1.32606  -1.24359
H     3.22667   0.13883  -1.05645
19

C    -3.58652   0.80321  -0.22265
N    -2.18274   0.54833   0.02929
C    -1.55569  -0.48611  -0.54339
O    -2.10736  -1.29672  -1.30374
C    -0.15334  -0.71527  -0.20600
C     0.91755  -1.24798  -0.01569
F     1.91227  -2.07617   0.03732
C     2.24535   0.66533   0.77976
C     2.67930   0.97668  -0.59513
O     1.22461   1.14931   1.36047
O     0.25081   1.69121   0.57650
H    -3.77277   1.03351  -1.28653
H    -4.20224  -0.07748   0.03639
H    -3.91489   1.65226   0.38458
H    -1.61425   1.18055   0.58979
H     2.88928   0.11306   1.46306
H     3.41591   1.79528  -0.44989
H     1.87478   1.32689  -1.24469
H     3.22784   0.14025  -1.05848
19

C    -3.58781   0.80212  -0.22335
N    -2.18427   0.54853   0.02928
C    -1.55390  -0.48461  -0.54217
O    -2.10175  -1.29786  -1.30163
C    -0.14908  -0.70261  -0.20215
C     0.93332  -1.22131  -0.00445
F     1.90344  -2.07624   0.03464
C     2.23338   0.64362   0.77066
C     2.68100   0.97662  -0.59613
O     1.22490   1.15241   1.36190
O     0.24763   1.67413   0.57176
H    -3.77298   1.03311  -1.28677
H    -4.20253  -0.07784   0.03623
H    -3.91537   1.65197   0.38427
H    -1.61573   1.18090   0.59034
H     2.88750   0.10930   1.46061
H     3.41536   1.79530  -0.44672
H     1.87623   1.32771  -1.24580
H     3.22902   0.14166  -1.06050
19

C    -3.58911   0.80102  -0.22405
N    -2.18580   0.54873   0.02926
C    -1.55211  -0.48310  -0.54094
O    -2.09614  -1.29900  -1.29952
C    -0.14483  -0.68996  -0.19830
C     0.94909  -1.19465   0.00679
F     1.89462  -2.07631   0.03196
C     2.22141   0.62192   0.76156
C     2.68269   0.97656  -0.59712
O     1.22519   1.15551   1.36334
O     0.24445   1.65705   0.56702
H    -3.77319   1.03271  -1.28702
H    -4.20282  -0.07819   0.03607
H    -3.91584   1.65169   0.38396
H    -1.61721   1.18124   0.59090
H     2.88572   0.10553   1.45816
H     3.41480   1.79532  -0.44354
H     1.87768   1.32853  -1.24691
H     3.23020   0.14308  -1.06252
19

C    -3.59040   0.79992  -0.22475
N    -2.18733   0.54894   0.02924
C    -1.55032  -0.48160  -0.53972
O    -2.09054  -1.30014  -1.29741
C    -0.14057  -0.67730  -0.19446
C     0.96485  -1.16798   0.01802
F     1.88579  -2.07638   0.02927
C     2.20944   0.60021   0.75246
C     2.68438   0.97650  -0.59811
O     1.22548   1.15861   1.36478
O     0.24127   1.63996   0.56228
H    -3.77340   1.03231  -1.28726
H    -4.20310  -0.07855   0.03591
H    -3.91632   1.65140   0.38366
H    -1.61869   1.18159   0.59145
H     2.88394   0.10177   1.45571
H     3.41424   1.79534  -0.44036
H     1.87914   1.32936  -1.24802
H     3.23137   0.14450  -1.06454
19

C    -3.59170   0.79883  -0.22545
N    -2.18886   0.54914   0.02922
C    -1.54853  -0.48009  -0.53849
O    -2.08493  -1.30128  -1.29530
C    -0.13631  -0.66465  -0.19061
C     0.98062  -1.14132   0.02926
F     1.87696  -2.07645   0.02659
C     2.19747   0.57851   0.74337
C     2.68607   0.97644  -0.59911
O     1.22577   1.16170   1.36621
O     0.23809   1.62288   0.55753
H    -3.77361   1.03191  -1.28750
H    -4.20339  -0.07891   0.03575
H    -3.91679   1.65112   0.38335
H    -1.62016   1.18193   0.59201
H     2.88216   0.09800   1.45326
H     3.41368   1.79536  -0.43718
H     1.88059   1.33018  -1.24913
H     3.23255   0.14591  -1.06656
19

C    -3.59299   0.79773  -0.22615
N    -2.19039   0.54934   0.02921
C    -1.54674  -0.47858  -0.53727
O    -2.07932  -1.30242  -1.29319
C    -0.13205  -0.65199  -0.18676
C     0.99639  -1.11465   0.04050
F     1.86813  -2.07652   0.02391
C     2.18550   0.55680   0.73427
C     2.68776   0.97638  -0.60010
O     1.22606   1.16480   1.36765
O     0.23491   1.60580   0.55279
H    -3.77382   1.03151  -1.28774
H    -4.20368  -0.07926   0.03559
H    -3.91727   1.65083   0.38305
H    -1.62164   1.18228   0.59256
H     2.88038   0.09423   1.45080
H     3.41312   1.79538  -0.43400
H     1.88205   1.33100  -1.25023
H     3.23372   0.14733  -1.06859
19

C    -3.59429   0.79663  -0.22685
N    -2.19192   0.54954   0.02919
C    -1.54496  -0.47708  -0.53604
O    -2.07371  -1.30356  -1.29108
C    -0.12779  -0.63934  -0.18292
C     1.01216  -1.08799   0.05173
F     1.85930  -2.07660   0.02122
C     2.17354   0.53510   0.72517
C     2.68945   0.97632  -0.60109
O     1.22635   1.16790   1.36908
O     0.23173   1.58871   0.54805
H    -3.77403   1.03111  -1.28799
H    -4.20397  -0.07962   0.03543
H    -3.91774   1.65054   0.38274
H    -1.62312   1.18262   0.59312
H     2.87859   0.09047   1.44835
H     3.41256   1.79540  -0.43083
H     1.88350   1.33183  -1.25134
H     3.23490   0.14875  -1.07061
19

C    -3.59558   0.79554  -0.22755
N    -2.19345   0.54974   0.02917
C    -1.54317  -0.47557  -0.53482
O    -2.06811  -1.30470  -1.28897
C    -0.12353  -0.62668  -0.17907
C     1.02793  -1.06132   0.06297
F     1.85048  -2.07667   0.01854
C     2.16157   0.51339   0.71607
C     2.69115   0.97626  -0.60208
O     1.22664   1.17100   1.37052
O     0.22855   1.57163   0.54331
H    -3.77424   1.03071  -1.28823
H    -4.20426  -0.07998   0.03528
H    -3.91822   1.65026   0.38243
H    -1.62460   1.18297   0.59367
H     2.87681   0.08670   1.44590
H     3.41201   1.79542  -0.42765
H     1.88496   1.33265  -1.25245
H     3.23608   0.15017  -1.07263
19

C    -3.59688   0.79444  -0.22825
N    -2.19498   0.54994   0.02915
C    -1.54138  -0.47406  -0.53359
O    -2.06250  -1.30584  -1.28686
C    -0.11928  -0.61403  -0.17522
C     1.04369  -1.03466   0.07421
F     1.84165  -2.07674   0.01586
C     2.14960   0.49169   0.70697
C     2.69284   0.97621  -0.60308
O     1.22694   1.17410   1.37195
O     0.22537   1.55454   0.53856
H    -3.77445   1.03031  -1.28847
H    -4.20454  -0.08033   0.03512
H    -3.91869   1.64997   0.38213
H    -1.62607   1.18332   0.59423
H     2.87503   0.08294   1.44345
H     3.41145   1.79544  -0.42447
H     1.88641   1.33347  -1.25356
H     3.23725   0.15158  -1.07465
19

C    -3.59818   0.79334  -0.22895
N    -2.19651   0.55014   0.02914
C    -1.53959  -0.47256  -0.53237
O    -2.05689  -1.30698  -1.28475
C    -0.11502  -0.60137  -0.17138
C     1.05946  -1.00799   0.08544
F     1.83282  -2.07681   0.01317
C     2.13763   0.46999   0.69788
C     2.69453   0.97615  -0.60407
O     1.22723   1.17720   1.37339
O     0.22220   1.53746   0.53382
H    -3.77466   1.02992  -1.28872
H    -4.20483  -0.08069   0.03496
H    -3.91917   1.64969   0.38182
H    -1.62755   1.18366   0.59478
H     2.87325   0.07917   1.44100
H     3.41089   1.79546  -0.42129
H     1.88786   1.33430  -1.25467
H     3.23843   0.15300  -1.07667
19

C    -3.59947   0.79225  -0.22965
N    -2.19804   0.55034   0.02912
C    -1.53780  -0.47105  -0.53114
O    -2.05129  -1.30812  -1.28264
C    -0.11076  -0.58872  -0.16753
C     1.07523  -0.98133   0.09668
F     1.82399  -2.07688   0.01049
C     2.12566   0.44828   0.68878
C     2.69622   0.97609  -0.60506
O     1.22752   1.18030   1.37482
O     0.21902   1.52038   0.52908
H    -3.77487   1.02952  -1.28896
H    -4.20512  -0.08105   0.03480
H    -3.91964   1.64940   0.38152
H    -1.62903   1.18401   0.59534
H     2.87147   0.07541   1.43855
H     3.41033   1.79548  -0.41811
H     1.88932   1.33512  -1.25577
H     3.23961   0.15442  -1.07870
19

C    -3.60077   0.79115  -0.23035
N    -2.19957   0.55055   0.02910
C    -1.53601  -0.46955  -0.52992
O    -2.04568  -1.30926  -1.28053
C    -0.10650  -0.57606  -0.16368
C     1.09100  -0.95466   0.10792
F     1.81517  -2.07695   0.00781
C     2.11369   0.42658   0.67968
C     2.69791   0.97603  -0.60605
O     1.22781   1.18340   1.37626
O     0.21584   1.50329   0.52434
H    -3.77508   1.02912  -1.28920
H    -4.20541  -0.08140   0.03464
H    -3.92012   1.64911   0.38121
H    -1.63051   1.18435   0.59589
H     2.86969   0.07164   1.43609
H     3.40977   1.79550  -0.41494
H     1.89077   1.33595  -1.25688
H     3.24078   0.15583  -1.08072
19

C    -3.60206   0.79006  -0.23105
N    -2.20110   0.55075   0.02909
C    -1.53422  -0.46804  -0.52869
O    -2.04007  -1.31040  -1.27843
C    -0.10224  -0.56341  -0.15984
C     1.10677  -0.92800   0.11915
F     1.80634  -2.07702   0.00512
C     2.10173   0.40487   0.67058
C     2.69961   0.97597  -0.60705
O     1.22810   1.18650   1.37769
O     0.21266   1.48621   0.51959
H    -3.77529   1.02872  -1.28945
H    -4.20570  -0.08176   0.03448
H    -3.92059   1.64883   0.38090
H    -1.63199   1.18470   0.59645
H     2.86790   0.06788   1.43364
H     3.40921   1.79552  -0.41176
H     1.89223   1.33677  -1.25799
H     3.24196   0.15725  -1.08274
19

C    -3.60336   0.78896  -0.23175
N    -2.20263   0.55095   0.02907
C    -1.53244  -0.46653  -0.52747
O    -2.03446  -1.31154  -1.27632
C    -0.09798  -0.55075  -0.15599
C     1.12254  -0.90133   0.13039
F     1.79751  -2.07710   0.00244
C     2.08976   0.38317   0.66148
C     2.70130   0.97591  -0.60804
O     1.22839   1.18960   1.37913
O     0.20948   1.46913   0.51485
H    -3.77550   1.02832  -1.28969
H    -4.20598  -0.08212   0.03432
H    -3.92107   1.64854   0.38060
H    -1.63346   1.18505   0.59700
H     2.86612   0.06411   1.43119
H     3.40866   1.79554  -0.40858
H     1.89368   1.33759  -1.25910
H     3.24313   0.15867  -1.08476
19

C    -3.60465   0.78786  -0.23245
N    -2.20416   0.55115   0.02905
C    -1.53065  -0.46503  -0.52625
O    -2.02886  -1.31268  -1.27421
C    -0.09372  -0.53810  -0.15215
C     1.13830  -0.87467   0.14163
F     1.78868  -2.07717  -0.00024
C     2.07779   0.36146   0.65238
C     2.70299   0.97585  -0.60903
O     1.22868   1.19270   1.38056
O     0.20630   1.45204   0.51011
H    -3.77571   1.02792  -1.28993
H    -4.20627  -0.08247   0.03416
H    -3.92154   1.64826   0.38029
H    -1.63494   1.18539   0.59756
H     2.86434   0.06034   1.42874
H     3.40810   1.79556  -0.40540
H     1.89513   1.33842  -1.26021
H     3.24431   0.16008  -1.08679
19

C    -3.60336   0.78896  -0.23175
N    -2.20263   0.55095   0.02907
C    -1.53244  -0.46653  -0.52747
O    -2.03446  -1.31154  -1.27632
C    -0.09798  -0.55075  -0.15599
C     1.12254  -0.90133   0.13039
F     1.79751  -2.07710   0.00244
C     2.08976   0.38317   0.66148
C     2.70130   0.97591  -0.60804
O     1.22839   1.18960   1.37913
O     0.20948   1.46913   0.51485
H    -3.77550   1.02832  -1.28969
H    -4.20598  -0.08212   0.03432
H    -3.92107   1.64854   0.38060
H    -1.63346   1.18505   0.59700
H     2.86612   0.06411   1.43119
H     3.40866   1.79554  -0.40858
H     1.89368   1.33759  -1.25910
H     3.24313   0.15867  -1.08476
19

C    -3.60206   0.79006  -0.23105
N    -2.20110   0.55075   0.02909
C    -1.53422  -0.46804  -0.52869
O    -2.04007  -1.31040  -1.27843
C    -0.10224  -0.56341  -0.15984
C     1.10677  -0.92800   0.11915
F     1.80634  -2.07702   0.00512
C     2.10173   0.40487   0.67058
C     2.69961   0.97597  -0.60705
O     1.22810   1.18650   1.37769
O     0.21266   1.48621   0.51959
H    -3.77529   1.02872  -1.28945
H    -4.20570  -0.08176   0.03448
H    -3.92059   1.64883   0.38090
H    -1.63199   1.18470   0.59645
H     2.86790   0.06788   1.43364
H     3.40921   1.79552  -0.41176
H     1.89223   1.33677  -1.25799
H     3.24196   0.15725  -1.08274
19

C    -3.60077   0.79115  -0.23035
N    -2.19957   0.55055   0.02910
C    -1.53601  -0.46955  -0.52992
O    -2.04568  -1.30926  -1.28053
C    -0.10650  -0.57606  -0.16368
C     1.09100  -0.95466   0.10792
F     1.81517  -2.07695   0.00781
C     2.11369   0.42658   0.67968
C     2.69791   0.97603  -0.60605
O     1.22781   1.18340   1.37626
O     0.21584   1.50329   0.52434
H    -3.77508   1.02912  -1.28920
H    -4.20541  -0.08140   0.03464
H    -3.92012   1.64911   0.38121
H    -1.63051   1.18435   0.59589
H     2.86969   0.07164   1.43609
H     3.40977   1.79550  -0.41494
H     1.89077   1.33595  -1.25688
H     3.24078   0.15583  -1.08072
19

C    -3.59947   0.79225  -0.22965
N    -2.19804   0.55034   0.02912
C    -1.53780  -0.47105  -0.53114
O    -2.05129  -1.30812  -1.28264
C    -0.11076  -0.58872  -0.16753
C     1.07523  -0.98133   0.09668
F     1.82399  -2.07688   0.01049
C     2.12566   0.44828   0.68878
C     2.69622   0.97609  -0.60506
O     1.22752   1.18030   1.37482
O     0.21902   1.52038   0.52908
H    -3.77487   1.02952  -1.28896
H    -4.20512  -0.08105   0.03480
H    -3.91964   1.64940   0.38152
H    -1.62903   1.18401   0.59534
H     2.87147   0.07541   1.43855
H     3.41033   1.79548  -0.41811
H     1.88932   1.33512  -1.25577
H     3.23961   0.15442  -1.07870
19

C    -3.59818   0.79334  -0.22895
N    -2.19651   0.55014   0.02914
C    -1.53959  -0.47256  -0.53237
O    -2.05689  -1.30698  -1.28475
C    -0.11502  -0.60137  -0.17138
C     1.05946  -1.00799   0.08544
F     1.83282  -2.07681   0.01317
C     2.13763   0.46999   0.69788
C     2.69453   0.97615  -0.60407
O     1.22723   1.17720   1.37339
O     0.22220   1.53746   0.53382
H    -3.77466   1.02992  -1.28872
H    -4.20483  -0.08069   0.03496
H    -3.91917   1.64969   0.38182
H    -1.62755   1.18366   0.59478
H     2.87325   0.07917   1.44100
H     3.41089   1.79546  -0.42129
H     1.88786   1.33430  -1.25467
H     3.23843   0.15300  -1.07667
19

C    -3.59688   0.79444  -0.22825
N    -2.19498   0.54994   0.02915
C    -1.54138  -0.47406  -0.53359
O    -2.06250  -1.30584  -1.28686
C    -0.11928  -0.61403  -0.17522
C     1.04369  -1.03466   0.07421
F     1.84165  -2.07674   0.01586
C     2.14960   0.49169   0.70697
C     2.69284   0.97621  -0.60308
O     1.22694   1.17410   1.37195
O     0.22537   1.55454   0.53856
H    -3.77445   1.03031  -1.28847
H    -4.20454  -0.08033   0.03512
H    -3.91869   1.64997   0.38213
H    -1.62607   1.18332   0.59423
H     2.87503   0.08294   1.44345
H     3.41145   1.79544  -0.42447
H     1.88641   1.33347  -1.25356
H     3.23725   0.15158  -1.07465
19

C    -3.59558   0.79554  -0.22755
N    -2.19345   0.54974   0.02917
C    -1.54317  -0.47557  -0.53482
O    -2.06811  -1.30470  -1.28897
C    -0.12353  -0.62668  -0.17907
C     1.02793  -1.06132   0.06297
F     1.85048  -2.07667   0.01854
C     2.16157   0.51339   0.71607
C     2.69115   0.97626  -0.60208
O     1.22664   1.17100   1.37052
O     0.22855   1.57163   0.54331
H    -3.77424   1.03071  -1.28823
H    -4.20426  -0.07998   0.03528
H    -3.91822   1.65026   0.38243
H    -1.62460   1.18297   0.59367
H     2.87681   0.08670   1.44590
H     3.41201   1.79542  -0.42765
H     1.88496   1.33265  -1.25245
H     3.23608   0.15017  -1.07263
19

C    -3.59429   0.79663  -0.22685
N    -2.19192   0.54954   0.02919
C    -1.54496  -0.47708  -0.53604
O    -2.07371  -1.30356  -1.29108
C    -0.12779  -0.63934  -0.18292
C     1.01216  -1.08799   0.05173
F     1.85930  -2.07660   0.02122
C     2.17354   0.53510   0.72517
C     2.68945   0.97632  -0.60109
O     1.22635   1.16790   1.36908
O     0.23173   1.58871   0.54805
H    -3.77403   1.03111  -1.28799
H    -4.20397  -0.07962   0.03543
H    -3.91774   1.65054   0.38274
H    -1.62312   1.18262   0.59312
H     2.87859   0.09047   1.44835
H     3.41256   1.79540  -0.43083
H     1.88350   1.33183  -1.25134
H     3.23490   0.14875  -1.07061
19

C    -3.59299   0.79773  -0.22615
N    -2.19039   0.54934   0.02921
C    -1.54674  -0.47858  -0.53727
O    -2.07932  -1.30242  -1.29319
C    -0.13205  -0.65199  -0.18676
C     0.99639  -1.11465   0.04050
F     1.86813  -2.07652   0.02391
C     2.18550   0.55680   0.73427
C     2.68776   0.97638  -0.60010
O     1.22606   1.16480   1.36765
O     0.23491   1.60580   0.55279
H    -3.77382   1.03151  -1.28774
H    -4.20368  -0.07926   0.03559
H    -3.91727   1.65083   0.38305
H    -1.62164   1.18228   0.59256
H     2.88038   0.09423   1.45080
H     3.41312   1.79538  -0.43400
H     1.88205   1.33100  -1.25023
H     3.23372   0.14733  -1.06859
19

C    -3.59170   0.79883  -0.22545
N    -2.18886   0.54914   0.02922
C    -1.54853  -0.48009  -0.53849
O    -2.08493  -1.30128  -1.29530
C    -0.13631  -0.66465  -0.19061
C     0.98062  -1.14132   0.02926
F     1.87696  -2.07645   0.02659
C     2.19747   0.57851   0.74337
C     2.68607   0.97644  -0.59911
O     1.22577   1.16170   1.36621
O     0.23809   1.62288   0.55753
H    -3.77361   1.03191  -1.28750
H    -4.20339  -0.07891   0.03575
H    -3.91679   1.65112   0.38335
H    -1.62016   1.18193   0.59201
H     2.88216   0.09800   1.45326
H     3.41368   1.79536  -0.43718
H     1.88059   1.33018  -1.24913
H     3.23255   0.14591  -1.06656
19

C    -3.59040   0.79992  -0.22475
N    -2.18733   0.54894   0.02924
C    -1.55032  -0.48160  -0.53972
O    -2.09054  -1.30014  -1.29741
C    -0.14057  -0.67730  -0.19446
C     0.96485  -1.16798   0.01802
F     1.88579  -2.07638   0.02927
C     2.20944   0.60021   0.75246
C     2.68438   0.97650  -0.59811
O     1.22548   1.15861   1.36478
O     0.24127   1.63996   0.56228
H    -3.77340   1.03231  -1.28726
H    -4.20310  -0.07855   0.03591
H    -3.91632   1.65140   0.38366
H    -1.61869   1.18159   0.59145
H     2.88394   0.10177   1.45571
H     3.41424   1.79534  -0.44036
H     1.87914   1.32936  -1.24802
H     3.23137   0.14450  -1.06454
19

C    -3.58911   0.80102  -0.22405
N    -2.18580   0.54873   0.02926
C    -1.55211  -0.48310  -0.54094
O    -2.09614  -1.29900  -1.29952
C    -0.14483  -0.68996  -0.19830
C     0.94909  -1.19465   0.00679
F     1.89462  -2.07631   0.03196
C     2.22141   0.62192   0.76156
C     2.68269   0.97656  -0.59712
O     1.22519   1.15551   1.36334
O     0.24445   1.65705   0.56702
H    -3.77319   1.03271  -1.28702
H    -4.20282  -0.07819   0.03607
H    -3.91584   1.65169   0.38396
H    -1.61721   1.18124   0.59090
H     2.88572   0.10553   1.45816
H     3.41480   1.79532  -0.44354
H     1.87768   1.32853  -1.24691
H     3.23020   0.14308  -1.06252
19

C    -3.58781   0.80212  -0.22335
N    -2.18427   0.54853   0.02928
C    -1.55390  -0.48461  -0.54217
O    -2.10175  -1.29786  -1.30163
C    -0.14908  -0.70261  -0.20215
C     0.93332  -1.22131  -0.00445
F     1.90344  -2.07624   0.03464
C     2.23338   0.64362   0.77066
C     2.68100   0.97662  -0.59613
O     1.22490   1.15241   1.36190
O     0.24763   1.67413   0.57176
H    -3.77298   1.03311  -1.28677
H    -4.20253  -0.07784   0.03623
H    -3.91537   1.65197   0.38427
H    -1.61573   1.18090   0.59034
H     2.88750   0.10930   1.46061
H     3.41536   1.79530  -0.44672
H     1.87623   1.32771  -1.24580
H     3.22902   0.14166  -1.06050
19

C    -3.58652   0.80321  -0.22265
N    -2.18274   0.54833   0.02929
C    -1.55569  -0.48611  -0.54339
O    -2.10736  -1.29672  -1.30374
C    -0.15334  -0.71527  -0.20600
C     0.91755  -1.24798  -0.01569
F     1.91227  -2.07617   0.03732
C     2.24535   0.66533   0.77976
C     2.67930   0.97668  -0.59513
O     1.22461   1.14931   1.36047
O     0.25081   1.69121   0.57650
H    -3.77277   1.03351  -1.28653
H    -4.20224  -0.07748   0.03639
H    -3.91489   1.65226   0.38458
H    -1.61425   1.18055   0.58979
H     2.88928   0.11306   1.46306
H     3.41591   1.79528  -0.44989
H     1.87478   1.32689  -1.24469
H     3.22784   0.14025  -1.05848
19

C    -3.58522   0.80431  -0.22195
N    -2.18121   0.54813   0.02931
C    -1.55747  -0.48762  -0.54461
O    -2.11296  -1.29558  -1.30585
C    -0.15760  -0.72792  -0.20984
C     0.90178  -1.27464  -0.02692
F     1.92110  -2.07610   0.04001
C     2.25732   0.68703   0.78886
C     2.67761   0.97674  -0.59414
O     1.22432   1.14621   1.35903
O     0.25399   1.70830   0.58125
H    -3.77256   1.03391  -1.28629
H    -4.20195  -0.07712   0.03655
H    -3.91442   1.65255   0.38488
H    -1.61277   1.18020   0.58923
H     2.89106   0.11683   1.46551
H     3.41647   1.79526  -0.45307
H     1.87332   1.32606  -1.24359
H     3.22667   0.13883  -1.05645
19

C    -3.58393   0.80541  -0.22125
N    -2.17969   0.54793   0.02933
C    -1.55926  -0.48913  -0.54584
O    -2.11857  -1.29444  -1.30796
C    -0.16186  -0.74058  -0.21369
C     0.88601  -1.30131  -0.03816
F     1.92993  -2.07602   0.04269
C     2.26928   0.70874   0.79796
C     2.67592   0.97680  -0.59315
O     1.22403   1.14311   1.35760
O     0.25717   1.72538   0.58599
H    -3.77235   1.03431  -1.28604
H    -4.20166  -0.07677   0.03671
H    -3.91394   1.65283   0.38519
H    -1.61130   1.17986   0.58867
H     2.89285   0.12059   1.46797
H     3.41703   1.79524  -0.45625
H     1.87187   1.32524  -1.24248
H     3.22549   0.13741  -1.05443
19

C    -3.58263   0.80650  -0.22055
N    -2.17816   0.54773   0.02934
C    -1.56105  -0.49063  -0.54706
O    -2.12418  -1.29330  -1.31007
C    -0.16612  -0.75323  -0.21753
C     0.87024  -1.32797  -0.04940
F     1.93875  -2.07595   0.04538
C     2.28125   0.73044   0.80705
C     2.67423   0.97686  -0.59216
O     1.22374   1.14001   1.35616
O     0.26035   1.74246   0.59073
H    -3.77214   1.03470  -1.28580
H    -4.20138  -0.07641   0.03687
H    -3.91347   1.65312   0.38550
H    -1.60982   1.17951   0.58812
H     2.89463   0.12436   1.47042
H     3.41759   1.79522  -0.45943
H     1.87041   1.32442  -1.24137
H     3.22432   0.13600  -1.05241
19

C    -3.58133   0.80760  -0.21985
N    -2.17663   0.54753   0.02936
C    -1.56284  -0.49214  -0.54829
O    -2.12978  -1.29216  -1.31218
C    -0.17038  -0.76588  -0.22138
C     0.85448  -1.35464  -0.06063
F     1.94758  -2.07588   0.04806
C     2.29322   0.75215   0.81615
C     2.67254   0.97692  -0.59116
O     1.22345   1.13691   1.35473
O     0.26353   1.75955   0.59547
H    -3.77193   1.03510  -1.28556
H    -4.20109  -0.07605   0.03703
H    -3.91299   1.65340   0.38580
H    -1.60834   1.17917   0.58756
H     2.89641   0.12812   1.47287
H     3.41815   1.79520  -0.46261
H     1.86896   1.32359  -1.24026
H     3.22314   0.13458  -1.05039
19

C    -3.58004   0.80870  -0.21915
N    -2.17510   0.54733   0.02938
C    -1.56463  -0.49365  -0.54951
O    -2.13539  -1.29102  -1.31428
C    -0.17464  -0.77854  -0.22523
C     0.83871  -1.38131  -0.07187
F     1.95641  -2.07581   0.05074
C     2.30519   0.77385   0.82525
C     2.67084   0.97698  -0.59017
O     1.22316   1.13381   1.35329
O     0.26671   1.77663   0.60022
H    -3.77172   1.03550  -1.28531
H    -4.20080  -0.07569   0.03718
H    -3.91252   1.65369   0.38611
H    -1.60686   1.17882   0.58701
H     2.89819   0.13189   1.47532
H     3.41871   1.79518  -0.46578
H     1.86751   1.32277  -1.23915
H     3.22196   0.13316  -1.04837
