15

O 0.401070881 4.225824816 3.344516853
C 1.475844998 3.127036059 1.785077060
C -3.317681117 0.542221933 -1.397608107
C -2.569569252 -1.209175994 0.224516679
C 0.088083971 -2.107934879 0.663416305
C 2.168386329 -0.765745542 -0.807996738
C 2.713406191 1.911485773 0.022790059
H -2.002786927 1.578097890 -2.579097894
H -5.297592644 1.024046688 -1.584364090
H -3.989955343 -2.152438364 1.371134915
H 0.154842836 -4.123913398 0.200137284
H 0.497331073 -2.010890734 2.692377564
H 1.698702063 -0.775934945 -2.823327345
H 3.908485508 -1.863843604 -0.623732472
H 4.250755104 2.958229942 -0.830755427

