15

O -0.815972667 5.081101367 1.071210775
C -0.117030437 2.972526854 0.410344844
C -2.379145670 1.097780777 -0.506226429
C -1.946516930 -1.318460311 0.727469215
C 0.506031258 -2.297036938 0.633246846
C 2.411427105 -0.817667014 -0.855641684
C 2.205182264 1.804344311 0.216853726
H -2.079910524 1.017032081 -2.548127229
H -4.217587708 1.912993396 -0.102367844
H -3.295991879 -2.123980109 2.047497582
H -1.290568709 -3.279941642 -0.766851107
H 1.025931652 -3.823828423 1.902580061
H 2.001525138 -0.982621699 -2.895002314
H 4.286097480 -1.619493645 -0.580628027
H 3.885851427 2.734311002 0.902730012

