12

N -2.151958165 -0.492316401 -2.641598979
C 0.074776198 -1.196862331 -2.053668181
C -2.823208595 1.424398641 -0.857001115
C -1.006741086 1.876020470 0.822714303
N 2.193522370 -1.247498884 2.275157443
C 1.193730034 0.208744798 0.171348592
H 0.857306741 -2.432726171 2.957658035
H 1.057126098 -2.664866666 -3.102316173
H -4.662292799 2.299282083 -1.009156194
H -1.024625945 3.205953233 2.368672033
H 3.690761090 -2.302902534 1.732565955
H 2.726575427 1.402603333 -0.566452020

