15

C 3.264735545 1.196439580 0.836855255
N 2.058972491 -1.005713472 -1.619759945
C 0.914463057 -2.971992213 -0.491356458
C -1.495869519 -2.331563594 0.353638377
C -1.886982318 0.213096403 -0.204083694
N -3.977102919 1.722993585 0.419107466
C 0.344761426 1.033151539 -1.352185459
H 5.161974502 0.466632377 0.575333695
H 3.303176391 3.249716776 0.728300448
H 2.400962256 0.529319809 2.572270124
H 1.871481726 -4.767323210 -0.318355754
H -2.826820013 -3.586334560 1.266812905
H -5.509771774 0.697785756 0.893148439
H -4.438026452 2.971111090 -0.944403745
H 0.606799411 2.714360011 -2.478758198

