16

C 2.770611224 0.235658221 -2.542828531
N 3.350174258 1.002115282 0.059014881
C 2.082762480 1.677197774 2.131250395
O -0.425232182 1.795506950 2.102246747
C -2.214458684 1.184290153 0.147532582
C -3.246806560 -1.445946413 0.608248378
O -1.365551473 -3.330767300 0.463739925
H 1.455625666 -1.345817404 -2.578815644
H 2.027129793 1.804116240 -3.655511859
H 4.532438870 -0.375350234 -3.414052462
H 5.212357001 1.050402018 0.426677218
H -3.731008232 2.567328528 0.353658238
H -1.425134538 1.372130385 -1.736879917
H -4.195524513 -1.488994790 2.448343056
H -4.646963492 -1.889684758 -0.841603173
H -0.267382943 -3.144421161 1.897904689

