11

N -3.897154880 -0.849709796 0.384044713
C -1.355060148 -0.339893492 0.060965815
N 0.349935912 -2.145192662 0.314312647
N 2.593138804 -1.099334605 -0.089058389
C 2.317030467 1.527528044 -0.380747953
C -0.356357561 2.114035066 -0.568730746
H -5.025228931 0.453404030 -0.415849900
H -4.420392700 -2.643414174 0.030250660
H 4.141452248 -2.069388945 0.423887226
H 3.816403670 2.568658725 -1.307957005
H 1.921671416 2.446938158 1.545392608

