9

O -5.081353684 -0.196576738 -1.111989609
C -3.323384612 0.399616510 0.164214063
C -0.697653456 -0.803038965 -0.227214131
N 1.180182455 0.584266657 1.132590213
C 3.570317072 0.575056944 -0.074486900
N 3.695989585 -1.165340773 1.441118843
O -0.365861315 -2.663573357 -1.451838031
H -3.442592543 1.831436974 1.678227296
H 4.554681627 1.614435849 -1.528725488

