9

O -4.218769032 2.444708244 0.170353368
C -3.409550625 0.358309799 -0.057083165
C -0.678253830 -0.427067805 0.615894776
N 1.053992384 1.072066424 -0.398850604
C 3.589299465 0.300523694 -0.665350194
N 3.994226124 -1.050628199 1.160295507
O -0.447915925 -2.278357656 1.958125291
H -4.579108756 -1.283739069 -0.604683334
H 4.786405325 1.040463929 -2.156807278

