16

C 3.964765105 -0.081558784 -0.555414205
C 1.474848565 0.520239731 0.691185944
C -0.558661114 2.049180535 -0.751000009
C -2.907933067 0.351784537 0.630358948
O -4.898147627 -0.729963577 -0.318861558
C -0.701181423 -1.261193654 0.396757411
H 5.153270027 1.599169413 -0.668868959
H 3.682371368 -0.796366154 -2.470386296
H 4.992573519 -1.511529188 0.517230777
H 1.690413422 1.258633112 2.599520088
H -0.466654242 1.911809974 -2.793339565
H -0.850187727 3.959960192 -0.074075355
H -3.099222540 1.333875582 2.450730480
H -4.089225888 -3.005436321 0.536266952
H -2.597312057 -3.763228043 1.251883597
H -0.639861058 -2.230466138 -1.413442028

