14

C -2.831596276 0.408878983 1.207421988
C -0.713822576 -0.904024493 0.456694005
C -0.456685388 -3.252057996 -0.688755983
O 1.862836815 -3.496184249 -1.594288289
C 3.197880096 -1.375631613 -1.241159930
C 1.762107439 0.363924100 0.101441897
N 2.243776462 2.785895045 0.500039957
H -4.708727376 -0.286116554 0.774021692
H -2.073446961 3.235287508 -0.676384777
H -2.720002846 1.826721389 2.674633565
H -1.672605588 -4.878677873 -0.811795182
H 5.128301454 -1.380069086 -1.872837056
H 1.317711072 3.403222782 2.066549121
H -0.601635357 3.759347528 -0.751438387

