16

C 4.715744005 -1.117971840 -0.467804121
O 2.154564060 -1.057128422 -1.151351678
C 0.629834549 0.060509560 0.836850871
C -2.329173507 1.973119757 1.441066120
C -4.480638359 0.640632369 0.286503097
C -2.178332941 -0.371868905 -1.002546952
H 5.029849482 -2.243654367 1.247151004
H 5.743273420 -1.984360396 -2.027272845
H 5.470066870 0.788264954 -0.144862172
H 0.560552522 -1.234857674 2.435556584
H 1.629584234 1.781475450 1.354954078
H -1.903309060 3.665053729 0.319284214
H -5.704540138 1.720661890 -0.956575056
H -5.497591449 -0.701628778 1.461154702
H -1.942990172 -2.396419600 -0.830863973
H -1.791700021 0.348372674 -2.871827053

