15

C 1.670845176 2.079758987 0.392078392
C 2.961988664 0.272466495 -1.496006713
C -0.449707990 -1.801808979 -0.017617936
O -3.146670143 -2.308807135 0.036743608
C -3.387733472 0.027040450 1.492064631
C -0.970496630 0.963053169 0.162444070
C 1.679344862 -1.871154425 -1.902673753
H 2.492727262 1.841341482 2.277714450
H 1.858694327 4.060700585 -0.142873915
H 4.785668464 0.699614840 -2.322179026
H 0.297560244 -2.569829977 1.771585342
H -3.191156431 -0.357309983 3.515734751
H -5.160580168 0.995470665 1.097123115
H -1.644853032 1.500934722 -1.714415287
H 2.290746361 -3.431644225 -3.071439806

