15

C 1.669062465 2.036957087 0.582509306
C 3.054345551 0.144666396 -1.036323331
C -0.122969600 -2.676699753 0.406388664
O -2.754273521 -2.710397274 0.635224747
C -3.102152183 -0.099659602 1.137904387
C -0.808746316 0.884900578 -0.332186357
C 1.129103271 -1.554157970 -1.751047156
H 1.914751333 1.998651790 2.632955466
H 1.927807753 3.994778321 -0.050015419
H 4.684181591 0.584939796 -2.186560978
H 0.905575883 -2.828338407 2.177789210
H -2.942941529 0.303314063 3.166860355
H -4.940206676 0.541226784 0.444149077
H -1.376965381 1.723564925 -2.124278289
H 0.793468353 -2.299234236 -3.650937342

