11

C -2.702859308 -0.842198116 0.104145604
C -0.044786566 0.069256119 0.015157323
N 1.978572468 -1.452023489 -0.305534907
N 4.143338101 -0.155576805 -0.321600149
N 3.576358450 2.189890317 -0.018210043
C 1.028532368 2.415346549 0.196970803
H -3.970183573 0.733842732 0.479759076
H -3.269981425 -1.697437647 -1.686063140
H -2.974859305 -2.241829250 1.595479478
H 2.026982432 -3.339388816 -0.517698276
H 0.129648270 4.222907098 0.462906215

