16

N 2.798407961 0.927051751 2.503045166
C 2.644918358 0.708304444 0.052275588
C 1.869170818 -1.944513197 -0.801847909
C -0.842279110 -2.275186167 0.285972689
C -1.775914874 0.341569490 0.925271667
C -1.863313555 2.161069310 -0.998586559
O 2.491484559 2.462205388 -1.567987156
H 3.026849186 2.797404744 2.911195188
H 1.876405445 -2.052752778 -2.857215426
H 3.105428628 -3.400905808 -0.041301268
H -0.815769370 -3.400852990 2.004647192
H -2.105625785 -3.199385414 -1.062138634
H -3.907670582 0.923286642 -0.238608688
H -2.131344315 0.916375271 2.854644756
H -2.245892180 4.122951735 -0.570060584
H -1.623044062 1.602341489 -2.946132690

