12

O 2.032742884 -0.959406791 -1.759204631
C 1.366145887 0.448490270 0.309449985
C -1.370700901 -0.035411483 0.903734061
C -2.170453746 -1.426947711 -1.474335844
O 0.049331584 -2.747303323 -2.181514106
C 3.009074441 1.977463047 1.411156272
H -2.412170618 1.706755717 1.235198657
H -1.534643619 -1.243240424 2.566791543
H -3.619356353 -2.859614490 -1.184672388
H -2.743440307 -0.122738940 -2.975949110
H 4.946056172 2.089878546 0.772683218
H 2.413444879 3.155459221 2.967511691

