14

C 4.439613992 0.218150324 0.970135220
N 2.411504584 0.020561316 -1.348516556
C -0.164329563 -0.045313818 -0.745281792
N -1.831732697 0.834632389 -2.370295572
N -4.060915145 0.454391487 -1.232938034
C -3.832621357 -0.627789544 1.054452570
C -1.297593369 -0.992273702 1.467137745
H 3.548970234 -1.648791448 -0.795342848
H 5.929730297 1.396405788 0.174649055
H 3.449931880 1.229849409 2.468532172
H 2.790978068 1.017574149 -2.930641982
H -5.648001007 1.008378137 -2.108437111
H -5.455355806 -1.049106459 2.212072092
H -0.388869599 -1.809693086 3.091615788

