13

N -3.692832174 1.441166615 -0.515228915
C -1.355169583 0.276885733 -0.195864784
C -0.691094273 -2.122273970 -0.583622601
N 1.955898626 -2.411840048 -0.292204420
C 3.088153148 -0.196788633 0.383783420
O 5.298084181 0.118551250 0.863359401
C 0.973961575 1.772531433 0.425309944
H -5.151344358 0.228175321 -0.683840408
H -4.071597577 2.774401542 0.791555119
H -1.844654720 -3.716403219 -1.118383743
H 2.894839703 -4.057669389 -0.348215751
H 0.917341563 2.682463550 2.277881067
H 1.360476897 3.236772171 -0.977218008

