13

N -3.821080213 1.341698197 -0.547265271
C -1.451798611 0.268317337 -0.238987049
C -0.757789946 -2.155049833 -0.659996997
N 1.929870257 -2.347821116 -0.468153626
C 2.811502554 -0.083205870 0.188964524
O 4.860248206 0.552113780 1.341506371
C 0.837966566 1.760051323 0.249678949
H -5.253178468 0.095878770 -0.681581468
H -4.207686318 2.727286493 0.697341783
H -1.867628537 -3.777720334 -1.193063112
H 2.825490571 -3.953467887 0.013754844
H 2.948966542 2.039614080 2.036798936
H 1.114910143 3.531664443 -0.744249435

