14

O 3.871011748 -2.422017036 -0.595999286
C 0.977669823 0.768943525 1.219698953
C -0.327419353 2.772563746 -0.208256474
N -2.611673635 1.540664721 -1.161865699
C -2.202320746 -1.193187380 -1.231794787
C -0.130581190 -1.566204596 0.707877744
O 0.862851273 -3.610425091 1.318027715
H 5.321997172 -3.320303565 -1.274356012
H 2.583705462 1.026625408 2.449058696
H -0.769688455 4.401574920 0.993788393
H 0.954323447 3.464172572 -1.697083796
H -3.172035842 2.246380863 -2.838072047
H -1.511487387 -1.914095447 -3.052150634
H -3.914665952 -2.227281005 -0.728712163

