16

N 2.736553748 0.741586829 2.519851880
C 2.439976691 -1.702254427 1.829280135
O 3.550237579 -3.425599048 2.864502021
C 0.633741388 -2.184113840 -0.359466387
C -1.962254134 -0.885376128 -0.208341020
C -2.246953545 1.448139478 -1.843063949
O -0.557942413 3.358039752 -0.988876163
H 3.945943546 1.124778369 3.929611474
H 1.865012683 2.147689879 1.575366518
H 1.603611952 -1.620778621 -2.098620532
H 0.416605469 -4.228051310 -0.431950347
H -3.414988671 -2.218708810 -0.819237962
H -2.413427702 -0.398790813 1.748311569
H -1.833654870 0.968580561 -3.817479510
H -4.198346403 2.135275607 -1.742939494
H -0.564115298 4.739582484 -2.156948214

