16

N 4.257747355 0.264195806 2.211858534
C 2.056363988 -0.752321400 1.431832842
O 0.178852638 -0.598149624 2.896126115
C 1.728953404 -1.917658318 -0.951636483
C -2.488652653 -1.002877371 0.162567224
C -2.778709286 1.223079635 -1.545730132
O -1.758756067 3.419248548 -0.436310834
H 4.283001296 1.290163779 3.805647141
H 5.882722793 -0.122379817 1.326262858
H 3.106061459 -1.560781857 -2.435346616
H 1.148073533 -3.877820053 -0.817376166
H -2.792683641 -2.790752530 -0.776673355
H -3.567642429 -0.849951870 1.892703785
H -1.919942940 0.833341215 -3.380074809
H -4.842921798 1.445496866 -1.798541340
H -1.912578734 4.774254896 -1.626238361

