11

C -1.172464568 0.641149114 2.298305378
H 0.597923783 1.308622056 3.113621460
H -2.504590414 0.266336224 3.828293827
C -2.290774196 2.159412776 0.055255497
H -4.133390148 3.005638560 0.397023087
H -1.016219102 3.614746252 -0.645219320
C -2.310767669 -0.249652777 -1.612668105
H -1.300387991 -0.181460894 -3.406763203
H -4.184442441 -1.048519964 -1.941457169
C -0.921281038 -1.615483892 0.516628351
O 0.061848431 -3.635623928 0.690183803

