15

C 4.229682654 0.452954294 -0.263230043
C 1.848371679 -0.287136042 -0.420187445
C -0.355743305 -0.021485128 1.344344343
H -0.055843467 0.948787721 3.126627935
C -1.459551062 -2.744637373 1.129476643
H -3.252411450 -2.948659556 2.117633445
H -0.203017492 -4.333792542 1.494890376
C -1.763903416 -1.888965944 -1.626970913
H -2.818779379 -2.898296919 -3.068309323
C -2.427108128 0.745169523 -0.605920556
H -4.303166128 0.841352104 0.233074701
H -2.059411096 2.355837580 -1.834174658
O 0.827103173 -1.572025746 -2.434829587
H 5.553675233 0.070502507 -1.771830326
H 4.878244597 1.453326512 1.393587148

