12

C -2.363780061 1.638800183 -0.539159839
C -0.552828228 -2.386673186 1.714017821
O -1.429053622 -0.882286955 -0.894361984
C 1.192550543 -1.479850878 -0.293152798
C 2.934683784 0.640746451 0.425932477
O 5.116517311 0.642312033 -0.186980936
H -2.095170440 2.223434713 1.413393707
H -1.409850055 2.902552148 -1.859219709
H -4.369766483 1.540324003 -0.973347944
H -1.108935793 -4.313221040 1.182475354
H 1.977547423 -2.655470325 -1.788358097
H 2.144939080 2.105567657 1.688556917

