10

O -3.238372826 0.928369835 -0.895525847
C -2.737485459 -1.420533168 0.245577979
C -0.302203358 -2.632441309 -0.553740777
C 1.221577057 -1.772823736 -2.340051299
H 2.959516864 -2.743965538 -2.810778486
H 0.766213854 -0.090037059 -3.415781278
H 0.186712557 -4.347889861 0.466972887
H -2.763259093 -1.265580407 2.317023796
H -4.314776568 -2.654899495 -0.264969725
H -1.910025279 2.077072099 -0.442514351

