14

O -3.545020309 0.930673317 -1.074775611
C -2.829515272 -1.222037338 0.227837589
C -0.059887500 -1.574351735 0.307201476
C 1.664618358 -0.557675395 -1.442503143
C 2.304598582 1.834203004 0.675117357
O 0.159570420 2.467957847 1.788367810
H -2.523701782 2.239509593 -0.228226892
H -3.558443790 -1.271629080 2.168400843
H -3.571386373 -2.918862827 -0.732957962
H 0.662376275 -2.803804018 1.790497192
H 3.400422643 -1.609245792 -1.736402307
H 0.825561874 0.279377602 -3.115760082
H 3.271719103 3.306157812 -0.454765993
H 3.731384552 0.888855435 1.866287681

