12

C -3.366984808 -0.826015144 0.056404980
C -0.690548275 0.066595026 -0.063020873
C 1.427534528 -1.362263784 -0.438504824
N 3.469926070 0.154709535 -0.301963192
N 2.736565351 2.606861523 -0.074169124
C 0.114433140 2.644658219 0.117197772
H -4.458100333 -0.098794220 -1.534982352
H -3.487594840 -2.884364138 0.028953136
H -4.274292606 -0.149038826 1.779740719
H 1.644493266 -3.359941308 -0.803022298
H 5.289915688 -0.281252758 -0.619339577
H 1.845997730 3.421960928 1.822315077

