8

O -2.488392797 2.203353160 -0.283862243
C -1.211523676 -1.016575655 -0.699683740
C 1.120172993 -1.042183939 0.554769185
C 3.203436401 -1.066455751 1.483240838
H -1.006641403 3.161440129 0.174743220
H -2.725213162 -2.021132823 0.253486237
H -1.989766846 1.175146562 -1.970555512
H 5.035932245 -1.113490827 2.311020627

