13

C -4.476206554 -0.021255299 -0.014264409
C -1.673270205 0.024402695 -0.297168409
N -0.659874864 -0.258353869 -2.534716391
O 1.846383498 -0.215300787 -2.344482405
C 2.420892536 0.331953921 0.261203765
N 4.843485787 -0.360462291 1.050663764
C 0.143700104 0.292561219 1.734892359
H -5.386227886 -0.368991967 -1.827423385
H -5.026910523 -1.495868329 1.316130827
H -5.147138187 1.772726245 0.747495549
H 6.176515131 -0.072723559 -0.279769247
H 4.910094022 -2.143905570 1.714053423
H 2.090411656 2.467513345 0.415462543

