13

C 3.345474453 0.047195400 0.705672736
C 0.594185773 0.371119591 0.204820895
C -1.116402460 -1.800298143 -0.368985523
N -3.515479978 -0.504951356 -0.703258289
C -3.489632739 1.974000540 -0.429719582
C -0.800336582 2.485326055 0.158399830
H 4.239028314 1.858154054 1.104573738
H 3.667596809 -1.205239978 2.316261329
H 4.297740158 -0.800538140 -0.919701831
H -0.555346288 -2.814696021 -2.082627383
H -5.105266032 -1.460161462 -1.119226637
H -1.203982668 -3.166475663 1.182177137
H -0.085503550 4.369710018 0.504847912

