10

N -2.123701922 2.424762846 -2.255940194
C -0.769179136 1.111299481 -0.864342682
O 1.778189141 1.385751361 -0.331560121
C 2.320113630 -0.782383125 0.929587782
O 4.177759878 -1.630843604 1.753199270
C -1.451245810 -1.124472063 0.772730253
O -0.474765778 -0.923421568 2.994040479
H -1.182259340 3.889460898 -3.069552196
H 0.655503209 -2.405758135 -0.389659070
H -3.241833160 -2.105026609 0.443504378

