12

C -3.523017359 0.713047070 0.209243553
C -1.784108821 -0.478558269 -1.576579665
C -0.501259379 -1.313699581 -3.386566566
C 1.285174524 -1.671929085 -0.570948529
C 3.255947449 0.229031084 -0.463794406
C 4.858519579 1.819834755 -0.341883789
H -4.201155556 -0.615449085 1.632872206
H -2.639934168 2.327598307 1.140341832
H -5.144526264 1.399936079 -0.860842910
H 2.015418688 -3.519852824 -1.083329267
H 0.454131064 -1.921291996 1.309640978
H 6.295034048 3.224833921 -0.256208614

