14

O 2.594445720 4.349246911 0.929637671
C 1.508770396 2.354762439 0.544889224
C 2.587576603 -0.123020849 0.987630116
C 1.214956288 -2.332402104 0.187203375
C -1.325730805 -2.208614101 -0.532276096
C -2.627467172 0.254407970 -0.101509190
N -0.866864768 2.307763514 -0.595065932
H 4.557243378 -0.254441550 1.494558522
H 1.592206604 -1.329610394 -1.767478532
H 2.169476134 -4.146827896 0.193611323
H -2.281988633 -3.833296990 -1.312664294
H -3.322101073 0.300330488 1.872321048
H -4.264062933 0.472701535 -1.333116082
H -1.613498224 4.049202868 -0.781794211

