16

C -1.616548469 -1.796300711 2.634023501
C -1.403796979 0.761325812 1.409709837
C 1.077527184 2.037933867 1.230814114
C 3.157636772 -0.234399455 -2.503311599
C 0.599717001 -1.213607307 -2.800917083
C -0.255373526 1.061889285 -1.189560882
H -1.927869131 -1.590055491 4.662890709
H -3.191405138 -2.877132893 1.852199716
H 0.110095822 -2.894587935 2.381055975
H -3.025225457 1.983803381 1.691833513
H 1.172278184 4.073006312 1.396805106
H 2.713003055 1.042980421 1.927752668
H 3.363817325 1.338051064 -3.865450850
H 0.222244642 -3.022871860 -1.894897058
H -0.360292896 -1.093035259 -4.624042532
H -1.030135631 2.569981779 -2.328439254

