14

C 3.156051084 0.812083554 0.117909783
C 1.601566569 -0.098973461 -1.970899027
O 1.693219136 2.525370599 -1.349818256
C -0.886541125 -1.450441694 -1.637888012
C -2.498053814 -0.528086347 0.562882970
O -3.422668574 1.941227605 0.203552152
H 2.528099722 0.564051860 2.054792473
H 2.586948062 -0.536487540 -3.722195154
H 5.185614220 0.981797627 -0.131005831
H -1.984747998 -1.247550058 -3.376808757
H -0.491545998 -3.468818332 -1.408363124
H -1.445599440 -0.677252521 2.347396646
H -4.148266506 -1.751749151 0.744718578
H -1.983872242 2.998543753 -0.153990834

