9

O 3.572463177 0.481705853 -0.321282184
C 1.188038803 -0.260517851 -0.007607830
N 0.460825495 -2.574667563 0.022251336
O -2.152551029 -2.511864084 0.355688862
C -3.055567580 -0.155249732 0.721393462
C -0.929996133 1.417785242 0.377220968
H 4.622744422 -0.993191787 -0.516973699
H -2.810973790 1.183146453 -1.288894166
H -0.883437137 3.438406327 0.656309744

