14

C -4.301648962 -0.861730155 -0.975774371
C -1.485354705 -0.926362341 -0.523350296
O -0.732383523 1.465302084 0.391437624
C 1.762977771 1.775819160 0.896522885
C 3.599663932 0.081956118 0.627423769
O 6.088950249 0.517547798 1.171147637
H -4.778885537 0.587241067 -2.361233523
H -5.309232582 -0.448868593 0.773901902
H -4.949068320 -2.685150835 -1.688264444
H -0.988856453 -2.385577391 0.865879068
H -0.461507251 -1.350069193 -2.277911038
H 2.145037025 3.669245746 1.586693139
H 6.295417171 2.218075846 1.768304758
H 3.307441050 -1.821109810 -0.052007550

