25

C     2.02196   0.65343   1.96095
O     0.68862   0.38784   1.50150
C     0.76625  -0.01518   0.18824
O     1.00676  -1.36115   0.01114
C     2.23340  -1.57202  -0.70482
C    -1.95083  -0.75027   0.48880
C    -2.09358  -0.45355   1.94988
C    -1.82537  -2.15353  -0.02681
N    -1.96230   0.20512  -0.35473
N    -1.92014   1.08278  -1.15089
C     0.68956   0.82144  -0.75938
F     0.71369   0.51343  -2.07880
F     0.65121   2.16724  -0.59113
H     2.51696   1.35828   1.24821
H     2.61002  -0.27881   1.98613
H     1.96370   1.09554   2.93746
H     2.92568  -0.71016  -0.52241
H     2.68803  -2.47954  -0.34059
H     2.04825  -1.63306  -1.78574
H    -1.97551   0.61459   2.17337
H    -1.32921  -1.00691   2.53790
H    -3.06996  -0.80612   2.22308
H    -2.79872  -2.59168   0.07888
H    -1.09616  -2.72567   0.58433
H    -1.48204  -2.18918  -1.07213
25

C     2.02191   0.65317   1.95720
O     0.68725   0.38811   1.50269
C     0.74483  -0.02280   0.19235
O     1.00632  -1.36199   0.01123
C     2.23344  -1.56845  -0.70468
C    -1.92818  -0.74652   0.48842
C    -2.08928  -0.45354   1.94766
C    -1.82145  -2.15085  -0.02600
N    -1.97499   0.20823  -0.35844
N    -1.89752   1.08019  -1.14718
C     0.66590   0.82286  -0.76253
F     0.71527   0.51243  -2.07691
F     0.65385   2.16436  -0.58950
H     2.51697   1.35786   1.24676
H     2.60984  -0.27898   1.98535
H     1.96417   1.09590   2.93622
H     2.92532  -0.70874  -0.52273
H     2.68865  -2.47806  -0.34018
H     2.04829  -1.63267  -1.78564
H    -1.97521   0.61448   2.17358
H    -1.32967  -1.00720   2.53894
H    -3.06938  -0.80653   2.21895
H    -2.79876  -2.58768   0.08007
H    -1.09634  -2.72666   0.58428
H    -1.48187  -2.18952  -1.07213
25

C     2.02186   0.65291   1.95344
O     0.68587   0.38838   1.50387
C     0.72341  -0.03043   0.19647
O     1.00588  -1.36282   0.01131
C     2.23348  -1.56489  -0.70454
C    -1.90553  -0.74277   0.48805
C    -2.08498  -0.45353   1.94544
C    -1.81752  -2.14817  -0.02520
N    -1.98768   0.21134  -0.36214
N    -1.87490   1.07761  -1.14348
C     0.64224   0.82428  -0.76569
F     0.71685   0.51144  -2.07502
F     0.65649   2.16147  -0.58787
H     2.51698   1.35743   1.24531
H     2.60966  -0.27914   1.98458
H     1.96464   1.09626   2.93497
H     2.92496  -0.70732  -0.52305
H     2.68927  -2.47658  -0.33977
H     2.04833  -1.63227  -1.78554
H    -1.97490   0.61437   2.17378
H    -1.33013  -1.00750   2.53998
H    -3.06880  -0.80693   2.21482
H    -2.79880  -2.58368   0.08125
H    -1.09651  -2.72764   0.58423
H    -1.48170  -2.18987  -1.07212
25

C     2.02180   0.65265   1.94969
O     0.68449   0.38866   1.50506
C     0.70199  -0.03805   0.20058
O     1.00544  -1.36365   0.01140
C     2.23352  -1.56132  -0.70440
C    -1.88287  -0.73903   0.48767
C    -2.08067  -0.45352   1.94321
C    -1.81360  -2.14550  -0.02439
N    -2.00038   0.21444  -0.36584
N    -1.85229   1.07503  -1.13978
C     0.61858   0.82571  -0.76885
F     0.71843   0.51044  -2.07313
F     0.65914   2.15859  -0.58624
H     2.51699   1.35701   1.24385
H     2.60948  -0.27931   1.98381
H     1.96511   1.09662   2.93373
H     2.92460  -0.70590  -0.52336
H     2.68989  -2.47511  -0.33935
H     2.04837  -1.63188  -1.78543
H    -1.97460   0.61426   2.17399
H    -1.33059  -1.00779   2.54103
H    -3.06822  -0.80734   2.21068
H    -2.79885  -2.57969   0.08243
H    -1.09669  -2.72863   0.58418
H    -1.48153  -2.19021  -1.07212
25

C     2.02175   0.65239   1.94594
O     0.68311   0.38893   1.50625
C     0.68056  -0.04568   0.20470
O     1.00500  -1.36449   0.01148
C     2.23355  -1.55776  -0.70426
C    -1.86022  -0.73528   0.48729
C    -2.07637  -0.45351   1.94099
C    -1.80967  -2.14282  -0.02358
N    -2.01307   0.21755  -0.36955
N    -1.82967   1.07244  -1.13608
C     0.59492   0.82713  -0.77200
F     0.72001   0.50944  -2.07124
F     0.66178   2.15570  -0.58461
H     2.51701   1.35658   1.24240
H     2.60930  -0.27947   1.98304
H     1.96558   1.09698   2.93248
H     2.92424  -0.70448  -0.52368
H     2.69051  -2.47363  -0.33894
H     2.04841  -1.63148  -1.78533
H    -1.97429   0.61416   2.17420
H    -1.33106  -1.00808   2.54207
H    -3.06763  -0.80775   2.20655
H    -2.79889  -2.57569   0.08362
H    -1.09687  -2.72962   0.58414
H    -1.48137  -2.19055  -1.07211
25

C     2.02170   0.65213   1.94219
O     0.68174   0.38920   1.50743
C     0.65914  -0.05330   0.20882
O     1.00456  -1.36532   0.01157
C     2.23359  -1.55419  -0.70412
C    -1.83757  -0.73153   0.48692
C    -2.07206  -0.45350   1.93877
C    -1.80575  -2.14014  -0.02278
N    -2.02576   0.22066  -0.37325
N    -1.80705   1.06986  -1.13237
C     0.57126   0.82855  -0.77516
F     0.72159   0.50844  -2.06935
F     0.66442   2.15282  -0.58297
H     2.51702   1.35616   1.24095
H     2.60912  -0.27964   1.98226
H     1.96605   1.09734   2.93124
H     2.92388  -0.70306  -0.52400
H     2.69113  -2.47215  -0.33852
H     2.04845  -1.63109  -1.78523
H    -1.97399   0.61405   2.17440
H    -1.33152  -1.00838   2.54311
H    -3.06705  -0.80815   2.20242
H    -2.79893  -2.57169   0.08480
H    -1.09705  -2.73061   0.58409
H    -1.48120  -2.19090  -1.07211
25

C     2.02164   0.65188   1.93844
O     0.68036   0.38948   1.50862
C     0.63772  -0.06093   0.21293
O     1.00412  -1.36615   0.01166
C     2.23363  -1.55062  -0.70398
C    -1.81492  -0.72778   0.48654
C    -2.06776  -0.45349   1.93655
C    -1.80182  -2.13746  -0.02197
N    -2.03845   0.22377  -0.37695
N    -1.78443   1.06728  -1.12867
C     0.54760   0.82997  -0.77832
F     0.72317   0.50744  -2.06747
F     0.66707   2.14993  -0.58134
H     2.51703   1.35573   1.23950
H     2.60893  -0.27980   1.98149
H     1.96652   1.09770   2.92999
H     2.92352  -0.70164  -0.52431
H     2.69175  -2.47068  -0.33811
H     2.04849  -1.63070  -1.78513
H    -1.97369   0.61394   2.17461
H    -1.33198  -1.00867   2.54415
H    -3.06647  -0.80856   2.19828
H    -2.79897  -2.56769   0.08598
H    -1.09722  -2.73160   0.58404
H    -1.48103  -2.19124  -1.07210
25

C     2.02159   0.65162   1.93469
O     0.67898   0.38975   1.50981
C     0.61630  -0.06855   0.21705
O     1.00368  -1.36699   0.01174
C     2.23367  -1.54706  -0.70384
C    -1.79227  -0.72403   0.48616
C    -2.06346  -0.45348   1.93433
C    -1.79790  -2.13478  -0.02116
N    -2.05115   0.22688  -0.38066
N    -1.76181   1.06470  -1.12497
C     0.52394   0.83139  -0.78147
F     0.72475   0.50644  -2.06558
F     0.66971   2.14705  -0.57971
H     2.51704   1.35531   1.23804
H     2.60875  -0.27997   1.98072
H     1.96699   1.09806   2.92875
H     2.92316  -0.70022  -0.52463
H     2.69237  -2.46920  -0.33770
H     2.04853  -1.63030  -1.78503
H    -1.97338   0.61383   2.17481
H    -1.33244  -1.00896   2.54519
H    -3.06589  -0.80897   2.19415
H    -2.79901  -2.56370   0.08717
H    -1.09740  -2.73259   0.58400
H    -1.48086  -2.19159  -1.07210
25

C     2.02154   0.65136   1.93094
O     0.67760   0.39002   1.51099
C     0.59488  -0.07618   0.22116
O     1.00324  -1.36782   0.01183
C     2.23371  -1.54349  -0.70370
C    -1.76962  -0.72029   0.48579
C    -2.05915  -0.45348   1.93211
C    -1.79397  -2.13210  -0.02035
N    -2.06384   0.22999  -0.38436
N    -1.73919   1.06211  -1.12127
C     0.50028   0.83281  -0.78463
F     0.72633   0.50544  -2.06369
F     0.67235   2.14416  -0.57808
H     2.51706   1.35488   1.23659
H     2.60857  -0.28013   1.97994
H     1.96746   1.09842   2.92750
H     2.92281  -0.69880  -0.52495
H     2.69299  -2.46772  -0.33728
H     2.04857  -1.62991  -1.78493
H    -1.97308   0.61372   2.17502
H    -1.33291  -1.00926   2.54623
H    -3.06531  -0.80937   2.19002
H    -2.79905  -2.55970   0.08835
H    -1.09758  -2.73358   0.58395
H    -1.48069  -2.19193  -1.07209
25

C     2.02148   0.65110   1.92718
O     0.67622   0.39029   1.51218
C     0.57346  -0.08380   0.22528
O     1.00280  -1.36865   0.01191
C     2.23375  -1.53993  -0.70356
C    -1.74697  -0.71654   0.48541
C    -2.05485  -0.45347   1.92989
C    -1.79005  -2.12943  -0.01955
N    -2.07653   0.23310  -0.38806
N    -1.71657   1.05953  -1.11757
C     0.47662   0.83423  -0.78779
F     0.72791   0.50444  -2.06180
F     0.67500   2.14128  -0.57644
H     2.51707   1.35446   1.23514
H     2.60839  -0.28030   1.97917
H     1.96793   1.09877   2.92626
H     2.92245  -0.69738  -0.52526
H     2.69361  -2.46625  -0.33687
H     2.04861  -1.62951  -1.78483
H    -1.97278   0.61361   2.17523
H    -1.33337  -1.00955   2.54727
H    -3.06472  -0.80978   2.18589
H    -2.79909  -2.55570   0.08954
H    -1.09776  -2.73457   0.58390
H    -1.48052  -2.19227  -1.07209
25

C     2.02143   0.65084   1.92343
O     0.67485   0.39057   1.51337
C     0.55204  -0.09143   0.22940
O     1.00236  -1.36948   0.01200
C     2.23379  -1.53636  -0.70342
C    -1.72431  -0.71279   0.48503
C    -2.05055  -0.45346   1.92767
C    -1.78612  -2.12675  -0.01874
N    -2.08922   0.23621  -0.39177
N    -1.69395   1.05695  -1.11386
C     0.45297   0.83566  -0.79095
F     0.72949   0.50345  -2.05991
F     0.67764   2.13840  -0.57481
H     2.51708   1.35404   1.23369
H     2.60821  -0.28046   1.97840
H     1.96840   1.09913   2.92501
H     2.92209  -0.69596  -0.52558
H     2.69423  -2.46477  -0.33645
H     2.04865  -1.62912  -1.78473
H    -1.97247   0.61351   2.17543
H    -1.33383  -1.00984   2.54831
H    -3.06414  -0.81018   2.18175
H    -2.79913  -2.55170   0.09072
H    -1.09794  -2.73555   0.58386
H    -1.48035  -2.19262  -1.07208
25

C     2.02138   0.65058   1.91968
O     0.67347   0.39084   1.51456
C     0.53061  -0.09906   0.23351
O     1.00191  -1.37032   0.01209
C     2.23383  -1.53279  -0.70328
C    -1.70166  -0.70904   0.48466
C    -2.04624  -0.45345   1.92544
C    -1.78220  -2.12407  -0.01793
N    -2.10192   0.23932  -0.39547
N    -1.67133   1.05436  -1.11016
C     0.42931   0.83708  -0.79410
F     0.73107   0.50245  -2.05802
F     0.68028   2.13551  -0.57318
H     2.51709   1.35361   1.23223
H     2.60803  -0.28063   1.97763
H     1.96887   1.09949   2.92377
H     2.92173  -0.69454  -0.52590
H     2.69485  -2.46329  -0.33604
H     2.04869  -1.62873  -1.78463
H    -1.97217   0.61340   2.17564
H    -1.33429  -1.01014   2.54935
H    -3.06356  -0.81059   2.17762
H    -2.79917  -2.54771   0.09190
H    -1.09811  -2.73654   0.58381
H    -1.48019  -2.19296  -1.07208
25

C     2.02132   0.65032   1.91593
O     0.67209   0.39111   1.51574
C     0.50919  -0.10668   0.23763
O     1.00147  -1.37115   0.01217
C     2.23387  -1.52923  -0.70314
C    -1.67901  -0.70529   0.48428
C    -2.04194  -0.45344   1.92322
C    -1.77827  -2.12139  -0.01713
N    -2.11461   0.24243  -0.39917
N    -1.64871   1.05178  -1.10646
C     0.40565   0.83850  -0.79726
F     0.73265   0.50145  -2.05613
F     0.68293   2.13263  -0.57155
H     2.51710   1.35319   1.23078
H     2.60784  -0.28079   1.97685
H     1.96934   1.09985   2.92252
H     2.92137  -0.69312  -0.52622
H     2.69547  -2.46182  -0.33563
H     2.04873  -1.62833  -1.78453
H    -1.97186   0.61329   2.17585
H    -1.33475  -1.01043   2.55039
H    -3.06298  -0.81100   2.17349
H    -2.79922  -2.54371   0.09309
H    -1.09829  -2.73753   0.58376
H    -1.48002  -2.19331  -1.07207
25

C     2.02127   0.65007   1.91218
O     0.67071   0.39139   1.51693
C     0.48777  -0.11431   0.24174
O     1.00103  -1.37198   0.01226
C     2.23391  -1.52566  -0.70300
C    -1.65636  -0.70155   0.48390
C    -2.03764  -0.45343   1.92100
C    -1.77435  -2.11871  -0.01632
N    -2.12730   0.24554  -0.40288
N    -1.62609   1.04920  -1.10276
C     0.38199   0.83992  -0.80042
F     0.73423   0.50045  -2.05425
F     0.68557   2.12974  -0.56991
H     2.51712   1.35276   1.22933
H     2.60766  -0.28096   1.97608
H     1.96981   1.10021   2.92128
H     2.92101  -0.69170  -0.52653
H     2.69609  -2.46034  -0.33521
H     2.04877  -1.62794  -1.78443
H    -1.97156   0.61318   2.17605
H    -1.33522  -1.01072   2.55143
H    -3.06240  -0.81140   2.16935
H    -2.79926  -2.53971   0.09427
H    -1.09847  -2.73852   0.58372
H    -1.47985  -2.19365  -1.07207
25

C     2.02122   0.64981   1.90843
O     0.66934   0.39166   1.51812
C     0.46635  -0.12193   0.24586
O     1.00059  -1.37282   0.01234
C     2.23395  -1.52210  -0.70286
C    -1.63371  -0.69780   0.48353
C    -2.03333  -0.45342   1.91878
C    -1.77043  -2.11603  -0.01551
N    -2.13999   0.24865  -0.40658
N    -1.60347   1.04662  -1.09905
C     0.35833   0.84134  -0.80357
F     0.73581   0.49945  -2.05236
F     0.68821   2.12686  -0.56828
H     2.51713   1.35234   1.22788
H     2.60748  -0.28112   1.97531
H     1.97028   1.10057   2.92004
H     2.92065  -0.69028  -0.52685
H     2.69670  -2.45886  -0.33480
H     2.04881  -1.62754  -1.78433
H    -1.97126   0.61307   2.17626
H    -1.33568  -1.01101   2.55247
H    -3.06181  -0.81181   2.16522
H    -2.79930  -2.53571   0.09545
H    -1.09865  -2.73951   0.58367
H    -1.47968  -2.19399  -1.07206
25

C     2.02116   0.64955   1.90468
O     0.66796   0.39193   1.51930
C     0.44493  -0.12956   0.24997
O     1.00015  -1.37365   0.01243
C     2.23399  -1.51853  -0.70272
C    -1.61106  -0.69405   0.48315
C    -2.02903  -0.45341   1.91656
C    -1.76650  -2.11336  -0.01470
N    -2.15268   0.25175  -0.41028
N    -1.58085   1.04403  -1.09535
C     0.33467   0.84276  -0.80673
F     0.73739   0.49845  -2.05047
F     0.69086   2.12397  -0.56665
H     2.51714   1.35191   1.22642
H     2.60730  -0.28129   1.97454
H     1.97075   1.10093   2.91879
H     2.92029  -0.68886  -0.52717
H     2.69732  -2.45739  -0.33439
H     2.04885  -1.62715  -1.78423
H    -1.97095   0.61296   2.17646
H    -1.33614  -1.01131   2.55351
H    -3.06123  -0.81221   2.16109
H    -2.79934  -2.53172   0.09664
H    -1.09882  -2.74050   0.58362
H    -1.47951  -2.19434  -1.07206
25

C     2.02111   0.64929   1.90092
O     0.66658   0.39220   1.52049
C     0.42351  -0.13718   0.25409
O     0.99971  -1.37448   0.01252
C     2.23402  -1.51496  -0.70258
C    -1.58841  -0.69030   0.48277
C    -2.02473  -0.45340   1.91434
C    -1.76258  -2.11068  -0.01390
N    -2.16538   0.25486  -0.41399
N    -1.55823   1.04145  -1.09165
C     0.31101   0.84418  -0.80989
F     0.73897   0.49745  -2.04858
F     0.69350   2.12109  -0.56502
H     2.51715   1.35149   1.22497
H     2.60712  -0.28145   1.97376
H     1.97122   1.10129   2.91755
H     2.91993  -0.68744  -0.52748
H     2.69794  -2.45591  -0.33397
H     2.04889  -1.62676  -1.78413
H    -1.97065   0.61286   2.17667
H    -1.33660  -1.01160   2.55455
H    -3.06065  -0.81262   2.15695
H    -2.79938  -2.52772   0.09782
H    -1.09900  -2.74149   0.58358
H    -1.47934  -2.19468  -1.07205
25

C     2.02106   0.64903   1.89717
O     0.66520   0.39248   1.52168
C     0.40209  -0.14481   0.25821
O     0.99927  -1.37532   0.01260
C     2.23406  -1.51140  -0.70244
C    -1.56576  -0.68655   0.48240
C    -2.02042  -0.45340   1.91212
C    -1.75865  -2.10800  -0.01309
N    -2.17807   0.25797  -0.41769
N    -1.53561   1.03887  -1.08795
C     0.28735   0.84560  -0.81304
F     0.74055   0.49645  -2.04669
F     0.69614   2.11820  -0.56339
H     2.51717   1.35106   1.22352
H     2.60694  -0.28162   1.97299
H     1.97169   1.10165   2.91630
H     2.91957  -0.68602  -0.52780
H     2.69856  -2.45443  -0.33356
H     2.04893  -1.62636  -1.78403
H    -1.97035   0.61275   2.17688
H    -1.33707  -1.01189   2.55559
H    -3.06007  -0.81303   2.15282
H    -2.79942  -2.52372   0.09900
H    -1.09918  -2.74248   0.58353
H    -1.47917  -2.19503  -1.07205
25

C     2.02100   0.64877   1.89342
O     0.66383   0.39275   1.52286
C     0.38067  -0.15243   0.26232
O     0.99883  -1.37615   0.01269
C     2.23410  -1.50783  -0.70229
C    -1.54310  -0.68281   0.48202
C    -2.01612  -0.45339   1.90990
C    -1.75473  -2.10532  -0.01228
N    -2.19076   0.26108  -0.42139
N    -1.51299   1.03628  -1.08424
C     0.26369   0.84703  -0.81620
F     0.74213   0.49545  -2.04480
F     0.69879   2.11532  -0.56175
H     2.51718   1.35064   1.22207
H     2.60675  -0.28178   1.97222
H     1.97216   1.10201   2.91506
H     2.91922  -0.68460  -0.52812
H     2.69918  -2.45295  -0.33314
H     2.04897  -1.62597  -1.78393
H    -1.97004   0.61264   2.17708
H    -1.33753  -1.01219   2.55663
H    -3.05949  -0.81343   2.14869
H    -2.79946  -2.51972   0.10019
H    -1.09936  -2.74347   0.58348
H    -1.47900  -2.19537  -1.07204
25

C     2.02095   0.64851   1.88967
O     0.66245   0.39302   1.52405
C     0.35924  -0.16006   0.26644
O     0.99839  -1.37698   0.01278
C     2.23414  -1.50427  -0.70215
C    -1.52045  -0.67906   0.48164
C    -2.01181  -0.45338   1.90767
C    -1.75080  -2.10264  -0.01147
N    -2.20345   0.26419  -0.42510
N    -1.49037   1.03370  -1.08054
C     0.24003   0.84845  -0.81936
F     0.74371   0.49446  -2.04291
F     0.70143   2.11243  -0.56012
H     2.51719   1.35021   1.22061
H     2.60657  -0.28195   1.97145
H     1.97263   1.10237   2.91381
H     2.91886  -0.68318  -0.52843
H     2.69980  -2.45148  -0.33273
H     2.04901  -1.62557  -1.78383
H    -1.96974   0.61253   2.17729
H    -1.33799  -1.01248   2.55767
H    -3.05890  -0.81384   2.14455
H    -2.79950  -2.51573   0.10137
H    -1.09954  -2.74445   0.58343
H    -1.47884  -2.19571  -1.07204
25

C     2.02090   0.64826   1.88592
O     0.66107   0.39330   1.52524
C     0.33782  -0.16768   0.27055
O     0.99795  -1.37782   0.01286
C     2.23418  -1.50070  -0.70201
C    -1.49780  -0.67531   0.48127
C    -2.00751  -0.45337   1.90545
C    -1.74688  -2.09996  -0.01067
N    -2.21615   0.26730  -0.42880
N    -1.46775   1.03112  -1.07684
C     0.21637   0.84987  -0.82252
F     0.74529   0.49346  -2.04102
F     0.70407   2.10955  -0.55849
H     2.51720   1.34979   1.21916
H     2.60639  -0.28212   1.97067
H     1.97310   1.10273   2.91257
H     2.91850  -0.68176  -0.52875
H     2.70042  -2.45000  -0.33232
H     2.04905  -1.62518  -1.78373
H    -1.96943   0.61242   2.17750
H    -1.33845  -1.01277   2.55871
H    -3.05832  -0.81425   2.14042
H    -2.79955  -2.51173   0.10255
H    -1.09971  -2.74544   0.58339
H    -1.47867  -2.19606  -1.07203
25

C     2.02095   0.64851   1.88967
O     0.66245   0.39302   1.52405
C     0.35924  -0.16006   0.26644
O     0.99839  -1.37698   0.01278
C     2.23414  -1.50427  -0.70215
C    -1.52045  -0.67906   0.48164
C    -2.01181  -0.45338   1.90767
C    -1.75080  -2.10264  -0.01147
N    -2.20345   0.26419  -0.42510
N    -1.49037   1.03370  -1.08054
C     0.24003   0.84845  -0.81936
F     0.74371   0.49446  -2.04291
F     0.70143   2.11243  -0.56012
H     2.51719   1.35021   1.22061
H     2.60657  -0.28195   1.97145
H     1.97263   1.10237   2.91381
H     2.91886  -0.68318  -0.52843
H     2.69980  -2.45148  -0.33273
H     2.04901  -1.62557  -1.78383
H    -1.96974   0.61253   2.17729
H    -1.33799  -1.01248   2.55767
H    -3.05890  -0.81384   2.14455
H    -2.79950  -2.51573   0.10137
H    -1.09954  -2.74445   0.58343
H    -1.47884  -2.19571  -1.07204
25

C     2.02100   0.64877   1.89342
O     0.66383   0.39275   1.52286
C     0.38067  -0.15243   0.26232
O     0.99883  -1.37615   0.01269
C     2.23410  -1.50783  -0.70229
C    -1.54310  -0.68281   0.48202
C    -2.01612  -0.45339   1.90990
C    -1.75473  -2.10532  -0.01228
N    -2.19076   0.26108  -0.42139
N    -1.51299   1.03628  -1.08424
C     0.26369   0.84703  -0.81620
F     0.74213   0.49545  -2.04480
F     0.69879   2.11532  -0.56175
H     2.51718   1.35064   1.22207
H     2.60675  -0.28178   1.97222
H     1.97216   1.10201   2.91506
H     2.91922  -0.68460  -0.52812
H     2.69918  -2.45295  -0.33314
H     2.04897  -1.62597  -1.78393
H    -1.97004   0.61264   2.17708
H    -1.33753  -1.01219   2.55663
H    -3.05949  -0.81343   2.14869
H    -2.79946  -2.51972   0.10019
H    -1.09936  -2.74347   0.58348
H    -1.47900  -2.19537  -1.07204
25

C     2.02106   0.64903   1.89717
O     0.66520   0.39248   1.52168
C     0.40209  -0.14481   0.25821
O     0.99927  -1.37532   0.01260
C     2.23406  -1.51140  -0.70244
C    -1.56576  -0.68655   0.48240
C    -2.02042  -0.45340   1.91212
C    -1.75865  -2.10800  -0.01309
N    -2.17807   0.25797  -0.41769
N    -1.53561   1.03887  -1.08795
C     0.28735   0.84560  -0.81304
F     0.74055   0.49645  -2.04669
F     0.69614   2.11820  -0.56339
H     2.51717   1.35106   1.22352
H     2.60694  -0.28162   1.97299
H     1.97169   1.10165   2.91630
H     2.91957  -0.68602  -0.52780
H     2.69856  -2.45443  -0.33356
H     2.04893  -1.62636  -1.78403
H    -1.97035   0.61275   2.17688
H    -1.33707  -1.01189   2.55559
H    -3.06007  -0.81303   2.15282
H    -2.79942  -2.52372   0.09900
H    -1.09918  -2.74248   0.58353
H    -1.47917  -2.19503  -1.07205
25

C     2.02111   0.64929   1.90092
O     0.66658   0.39220   1.52049
C     0.42351  -0.13718   0.25409
O     0.99971  -1.37448   0.01252
C     2.23402  -1.51496  -0.70258
C    -1.58841  -0.69030   0.48277
C    -2.02473  -0.45340   1.91434
C    -1.76258  -2.11068  -0.01390
N    -2.16538   0.25486  -0.41399
N    -1.55823   1.04145  -1.09165
C     0.31101   0.84418  -0.80989
F     0.73897   0.49745  -2.04858
F     0.69350   2.12109  -0.56502
H     2.51715   1.35149   1.22497
H     2.60712  -0.28145   1.97376
H     1.97122   1.10129   2.91755
H     2.91993  -0.68744  -0.52748
H     2.69794  -2.45591  -0.33397
H     2.04889  -1.62676  -1.78413
H    -1.97065   0.61286   2.17667
H    -1.33660  -1.01160   2.55455
H    -3.06065  -0.81262   2.15695
H    -2.79938  -2.52772   0.09782
H    -1.09900  -2.74149   0.58358
H    -1.47934  -2.19468  -1.07205
25

C     2.02116   0.64955   1.90468
O     0.66796   0.39193   1.51930
C     0.44493  -0.12956   0.24997
O     1.00015  -1.37365   0.01243
C     2.23399  -1.51853  -0.70272
C    -1.61106  -0.69405   0.48315
C    -2.02903  -0.45341   1.91656
C    -1.76650  -2.11336  -0.01470
N    -2.15268   0.25175  -0.41028
N    -1.58085   1.04403  -1.09535
C     0.33467   0.84276  -0.80673
F     0.73739   0.49845  -2.05047
F     0.69086   2.12397  -0.56665
H     2.51714   1.35191   1.22642
H     2.60730  -0.28129   1.97454
H     1.97075   1.10093   2.91879
H     2.92029  -0.68886  -0.52717
H     2.69732  -2.45739  -0.33439
H     2.04885  -1.62715  -1.78423
H    -1.97095   0.61296   2.17646
H    -1.33614  -1.01131   2.55351
H    -3.06123  -0.81221   2.16109
H    -2.79934  -2.53172   0.09664
H    -1.09882  -2.74050   0.58362
H    -1.47951  -2.19434  -1.07206
25

C     2.02122   0.64981   1.90843
O     0.66934   0.39166   1.51812
C     0.46635  -0.12193   0.24586
O     1.00059  -1.37282   0.01234
C     2.23395  -1.52210  -0.70286
C    -1.63371  -0.69780   0.48353
C    -2.03333  -0.45342   1.91878
C    -1.77043  -2.11603  -0.01551
N    -2.13999   0.24865  -0.40658
N    -1.60347   1.04662  -1.09905
C     0.35833   0.84134  -0.80357
F     0.73581   0.49945  -2.05236
F     0.68821   2.12686  -0.56828
H     2.51713   1.35234   1.22788
H     2.60748  -0.28112   1.97531
H     1.97028   1.10057   2.92004
H     2.92065  -0.69028  -0.52685
H     2.69670  -2.45886  -0.33480
H     2.04881  -1.62754  -1.78433
H    -1.97126   0.61307   2.17626
H    -1.33568  -1.01101   2.55247
H    -3.06181  -0.81181   2.16522
H    -2.79930  -2.53571   0.09545
H    -1.09865  -2.73951   0.58367
H    -1.47968  -2.19399  -1.07206
25

C     2.02127   0.65007   1.91218
O     0.67071   0.39139   1.51693
C     0.48777  -0.11431   0.24174
O     1.00103  -1.37198   0.01226
C     2.23391  -1.52566  -0.70300
C    -1.65636  -0.70155   0.48390
C    -2.03764  -0.45343   1.92100
C    -1.77435  -2.11871  -0.01632
N    -2.12730   0.24554  -0.40288
N    -1.62609   1.04920  -1.10276
C     0.38199   0.83992  -0.80042
F     0.73423   0.50045  -2.05425
F     0.68557   2.12974  -0.56991
H     2.51712   1.35276   1.22933
H     2.60766  -0.28096   1.97608
H     1.96981   1.10021   2.92128
H     2.92101  -0.69170  -0.52653
H     2.69609  -2.46034  -0.33521
H     2.04877  -1.62794  -1.78443
H    -1.97156   0.61318   2.17605
H    -1.33522  -1.01072   2.55143
H    -3.06240  -0.81140   2.16935
H    -2.79926  -2.53971   0.09427
H    -1.09847  -2.73852   0.58372
H    -1.47985  -2.19365  -1.07207
25

C     2.02132   0.65032   1.91593
O     0.67209   0.39111   1.51574
C     0.50919  -0.10668   0.23763
O     1.00147  -1.37115   0.01217
C     2.23387  -1.52923  -0.70314
C    -1.67901  -0.70529   0.48428
C    -2.04194  -0.45344   1.92322
C    -1.77827  -2.12139  -0.01713
N    -2.11461   0.24243  -0.39917
N    -1.64871   1.05178  -1.10646
C     0.40565   0.83850  -0.79726
F     0.73265   0.50145  -2.05613
F     0.68293   2.13263  -0.57155
H     2.51710   1.35319   1.23078
H     2.60784  -0.28079   1.97685
H     1.96934   1.09985   2.92252
H     2.92137  -0.69312  -0.52622
H     2.69547  -2.46182  -0.33563
H     2.04873  -1.62833  -1.78453
H    -1.97186   0.61329   2.17585
H    -1.33475  -1.01043   2.55039
H    -3.06298  -0.81100   2.17349
H    -2.79922  -2.54371   0.09309
H    -1.09829  -2.73753   0.58376
H    -1.48002  -2.19331  -1.07207
25

C     2.02138   0.65058   1.91968
O     0.67347   0.39084   1.51456
C     0.53061  -0.09906   0.23351
O     1.00191  -1.37032   0.01209
C     2.23383  -1.53279  -0.70328
C    -1.70166  -0.70904   0.48466
C    -2.04624  -0.45345   1.92544
C    -1.78220  -2.12407  -0.01793
N    -2.10192   0.23932  -0.39547
N    -1.67133   1.05436  -1.11016
C     0.42931   0.83708  -0.79410
F     0.73107   0.50245  -2.05802
F     0.68028   2.13551  -0.57318
H     2.51709   1.35361   1.23223
H     2.60803  -0.28063   1.97763
H     1.96887   1.09949   2.92377
H     2.92173  -0.69454  -0.52590
H     2.69485  -2.46329  -0.33604
H     2.04869  -1.62873  -1.78463
H    -1.97217   0.61340   2.17564
H    -1.33429  -1.01014   2.54935
H    -3.06356  -0.81059   2.17762
H    -2.79917  -2.54771   0.09190
H    -1.09811  -2.73654   0.58381
H    -1.48019  -2.19296  -1.07208
25

C     2.02143   0.65084   1.92343
O     0.67485   0.39057   1.51337
C     0.55204  -0.09143   0.22940
O     1.00236  -1.36948   0.01200
C     2.23379  -1.53636  -0.70342
C    -1.72431  -0.71279   0.48503
C    -2.05055  -0.45346   1.92767
C    -1.78612  -2.12675  -0.01874
N    -2.08922   0.23621  -0.39177
N    -1.69395   1.05695  -1.11386
C     0.45297   0.83566  -0.79095
F     0.72949   0.50345  -2.05991
F     0.67764   2.13840  -0.57481
H     2.51708   1.35404   1.23369
H     2.60821  -0.28046   1.97840
H     1.96840   1.09913   2.92501
H     2.92209  -0.69596  -0.52558
H     2.69423  -2.46477  -0.33645
H     2.04865  -1.62912  -1.78473
H    -1.97247   0.61351   2.17543
H    -1.33383  -1.00984   2.54831
H    -3.06414  -0.81018   2.18175
H    -2.79913  -2.55170   0.09072
H    -1.09794  -2.73555   0.58386
H    -1.48035  -2.19262  -1.07208
25

C     2.02148   0.65110   1.92718
O     0.67622   0.39029   1.51218
C     0.57346  -0.08380   0.22528
O     1.00280  -1.36865   0.01191
C     2.23375  -1.53993  -0.70356
C    -1.74697  -0.71654   0.48541
C    -2.05485  -0.45347   1.92989
C    -1.79005  -2.12943  -0.01955
N    -2.07653   0.23310  -0.38806
N    -1.71657   1.05953  -1.11757
C     0.47662   0.83423  -0.78779
F     0.72791   0.50444  -2.06180
F     0.67500   2.14128  -0.57644
H     2.51707   1.35446   1.23514
H     2.60839  -0.28030   1.97917
H     1.96793   1.09877   2.92626
H     2.92245  -0.69738  -0.52526
H     2.69361  -2.46625  -0.33687
H     2.04861  -1.62951  -1.78483
H    -1.97278   0.61361   2.17523
H    -1.33337  -1.00955   2.54727
H    -3.06472  -0.80978   2.18589
H    -2.79909  -2.55570   0.08954
H    -1.09776  -2.73457   0.58390
H    -1.48052  -2.19227  -1.07209
25

C     2.02154   0.65136   1.93094
O     0.67760   0.39002   1.51099
C     0.59488  -0.07618   0.22116
O     1.00324  -1.36782   0.01183
C     2.23371  -1.54349  -0.70370
C    -1.76962  -0.72029   0.48579
C    -2.05915  -0.45348   1.93211
C    -1.79397  -2.13210  -0.02035
N    -2.06384   0.22999  -0.38436
N    -1.73919   1.06211  -1.12127
C     0.50028   0.83281  -0.78463
F     0.72633   0.50544  -2.06369
F     0.67235   2.14416  -0.57808
H     2.51706   1.35488   1.23659
H     2.60857  -0.28013   1.97994
H     1.96746   1.09842   2.92750
H     2.92281  -0.69880  -0.52495
H     2.69299  -2.46772  -0.33728
H     2.04857  -1.62991  -1.78493
H    -1.97308   0.61372   2.17502
H    -1.33291  -1.00926   2.54623
H    -3.06531  -0.80937   2.19002
H    -2.79905  -2.55970   0.08835
H    -1.09758  -2.73358   0.58395
H    -1.48069  -2.19193  -1.07209
25

C     2.02159   0.65162   1.93469
O     0.67898   0.38975   1.50981
C     0.61630  -0.06855   0.21705
O     1.00368  -1.36699   0.01174
C     2.23367  -1.54706  -0.70384
C    -1.79227  -0.72403   0.48616
C    -2.06346  -0.45348   1.93433
C    -1.79790  -2.13478  -0.02116
N    -2.05115   0.22688  -0.38066
N    -1.76181   1.06470  -1.12497
C     0.52394   0.83139  -0.78147
F     0.72475   0.50644  -2.06558
F     0.66971   2.14705  -0.57971
H     2.51704   1.35531   1.23804
H     2.60875  -0.27997   1.98072
H     1.96699   1.09806   2.92875
H     2.92316  -0.70022  -0.52463
H     2.69237  -2.46920  -0.33770
H     2.04853  -1.63030  -1.78503
H    -1.97338   0.61383   2.17481
H    -1.33244  -1.00896   2.54519
H    -3.06589  -0.80897   2.19415
H    -2.79901  -2.56370   0.08717
H    -1.09740  -2.73259   0.58400
H    -1.48086  -2.19159  -1.07210
25

C     2.02164   0.65188   1.93844
O     0.68036   0.38948   1.50862
C     0.63772  -0.06093   0.21293
O     1.00412  -1.36615   0.01166
C     2.23363  -1.55062  -0.70398
C    -1.81492  -0.72778   0.48654
C    -2.06776  -0.45349   1.93655
C    -1.80182  -2.13746  -0.02197
N    -2.03845   0.22377  -0.37695
N    -1.78443   1.06728  -1.12867
C     0.54760   0.82997  -0.77832
F     0.72317   0.50744  -2.06747
F     0.66707   2.14993  -0.58134
H     2.51703   1.35573   1.23950
H     2.60893  -0.27980   1.98149
H     1.96652   1.09770   2.92999
H     2.92352  -0.70164  -0.52431
H     2.69175  -2.47068  -0.33811
H     2.04849  -1.63070  -1.78513
H    -1.97369   0.61394   2.17461
H    -1.33198  -1.00867   2.54415
H    -3.06647  -0.80856   2.19828
H    -2.79897  -2.56769   0.08598
H    -1.09722  -2.73160   0.58404
H    -1.48103  -2.19124  -1.07210
25

C     2.02170   0.65213   1.94219
O     0.68174   0.38920   1.50743
C     0.65914  -0.05330   0.20882
O     1.00456  -1.36532   0.01157
C     2.23359  -1.55419  -0.70412
C    -1.83757  -0.73153   0.48692
C    -2.07206  -0.45350   1.93877
C    -1.80575  -2.14014  -0.02278
N    -2.02576   0.22066  -0.37325
N    -1.80705   1.06986  -1.13237
C     0.57126   0.82855  -0.77516
F     0.72159   0.50844  -2.06935
F     0.66442   2.15282  -0.58297
H     2.51702   1.35616   1.24095
H     2.60912  -0.27964   1.98226
H     1.96605   1.09734   2.93124
H     2.92388  -0.70306  -0.52400
H     2.69113  -2.47215  -0.33852
H     2.04845  -1.63109  -1.78523
H    -1.97399   0.61405   2.17440
H    -1.33152  -1.00838   2.54311
H    -3.06705  -0.80815   2.20242
H    -2.79893  -2.57169   0.08480
H    -1.09705  -2.73061   0.58409
H    -1.48120  -2.19090  -1.07211
25

C     2.02175   0.65239   1.94594
O     0.68311   0.38893   1.50625
C     0.68056  -0.04568   0.20470
O     1.00500  -1.36449   0.01148
C     2.23355  -1.55776  -0.70426
C    -1.86022  -0.73528   0.48729
C    -2.07637  -0.45351   1.94099
C    -1.80967  -2.14282  -0.02358
N    -2.01307   0.21755  -0.36955
N    -1.82967   1.07244  -1.13608
C     0.59492   0.82713  -0.77200
F     0.72001   0.50944  -2.07124
F     0.66178   2.15570  -0.58461
H     2.51701   1.35658   1.24240
H     2.60930  -0.27947   1.98304
H     1.96558   1.09698   2.93248
H     2.92424  -0.70448  -0.52368
H     2.69051  -2.47363  -0.33894
H     2.04841  -1.63148  -1.78533
H    -1.97429   0.61416   2.17420
H    -1.33106  -1.00808   2.54207
H    -3.06763  -0.80775   2.20655
H    -2.79889  -2.57569   0.08362
H    -1.09687  -2.72962   0.58414
H    -1.48137  -2.19055  -1.07211
25

C     2.02180   0.65265   1.94969
O     0.68449   0.38866   1.50506
C     0.70199  -0.03805   0.20058
O     1.00544  -1.36365   0.01140
C     2.23352  -1.56132  -0.70440
C    -1.88287  -0.73903   0.48767
C    -2.08067  -0.45352   1.94321
C    -1.81360  -2.14550  -0.02439
N    -2.00038   0.21444  -0.36584
N    -1.85229   1.07503  -1.13978
C     0.61858   0.82571  -0.76885
F     0.71843   0.51044  -2.07313
F     0.65914   2.15859  -0.58624
H     2.51699   1.35701   1.24385
H     2.60948  -0.27931   1.98381
H     1.96511   1.09662   2.93373
H     2.92460  -0.70590  -0.52336
H     2.68989  -2.47511  -0.33935
H     2.04837  -1.63188  -1.78543
H    -1.97460   0.61426   2.17399
H    -1.33059  -1.00779   2.54103
H    -3.06822  -0.80734   2.21068
H    -2.79885  -2.57969   0.08243
H    -1.09669  -2.72863   0.58418
H    -1.48153  -2.19021  -1.07212
25

C     2.02186   0.65291   1.95344
O     0.68587   0.38838   1.50387
C     0.72341  -0.03043   0.19647
O     1.00588  -1.36282   0.01131
C     2.23348  -1.56489  -0.70454
C    -1.90553  -0.74277   0.48805
C    -2.08498  -0.45353   1.94544
C    -1.81752  -2.14817  -0.02520
N    -1.98768   0.21134  -0.36214
N    -1.87490   1.07761  -1.14348
C     0.64224   0.82428  -0.76569
F     0.71685   0.51144  -2.07502
F     0.65649   2.16147  -0.58787
H     2.51698   1.35743   1.24531
H     2.60966  -0.27914   1.98458
H     1.96464   1.09626   2.93497
H     2.92496  -0.70732  -0.52305
H     2.68927  -2.47658  -0.33977
H     2.04833  -1.63227  -1.78554
H    -1.97490   0.61437   2.17378
H    -1.33013  -1.00750   2.53998
H    -3.06880  -0.80693   2.21482
H    -2.79880  -2.58368   0.08125
H    -1.09651  -2.72764   0.58423
H    -1.48170  -2.18987  -1.07212
25

C     2.02191   0.65317   1.95720
O     0.68725   0.38811   1.50269
C     0.74483  -0.02280   0.19235
O     1.00632  -1.36199   0.01123
C     2.23344  -1.56845  -0.70468
C    -1.92818  -0.74652   0.48842
C    -2.08928  -0.45354   1.94766
C    -1.82145  -2.15085  -0.02600
N    -1.97499   0.20823  -0.35844
N    -1.89752   1.08019  -1.14718
C     0.66590   0.82286  -0.76253
F     0.71527   0.51243  -2.07691
F     0.65385   2.16436  -0.58950
H     2.51697   1.35786   1.24676
H     2.60984  -0.27898   1.98535
H     1.96417   1.09590   2.93622
H     2.92532  -0.70874  -0.52273
H     2.68865  -2.47806  -0.34018
H     2.04829  -1.63267  -1.78564
H    -1.97521   0.61448   2.17358
H    -1.32967  -1.00720   2.53894
H    -3.06938  -0.80653   2.21895
H    -2.79876  -2.58768   0.08007
H    -1.09634  -2.72666   0.58428
H    -1.48187  -2.18952  -1.07213
