16

C 4.076462469 -0.027976167 0.007821104
C 1.319592559 0.569971597 0.570961058
C -0.478446586 -0.365920746 -1.476741031
O -0.355972000 -3.037033657 -1.784598827
C -3.198126913 0.268316279 -0.966647579
C -4.000835592 1.371307825 1.089094443
N -4.721670810 2.603699218 2.898827138
H 4.661133169 0.753498491 -1.813941946
H 5.315271882 0.769749248 1.448861486
H 4.420558145 -2.063412402 -0.023109121
H 1.073465161 2.612458571 0.770926490
H 0.767288881 -0.288007319 2.368817164
H 0.052704651 0.534269134 -3.274478217
H 1.224164413 -3.452896029 -2.569669937
H -5.228339416 1.574433560 4.439366703
H -4.592811973 -0.286527891 -2.357713643

