12

C 3.016698843 -0.637781679 1.491806079
C 1.256442315 0.442765458 -0.416310501
C 0.493409929 -0.572324060 -2.971481250
H 0.781952853 -0.389352368 -4.988946681
C -1.283325710 -0.035134998 -1.305255585
C -2.017917227 2.617100721 -0.587860047
H -2.845621729 3.748725019 -2.096508140
H -3.045470717 2.863332110 1.181171368
O 0.678533075 3.123282949 -0.163258788
H 4.930149119 0.073376327 1.191996040
H 3.057008194 -2.687217251 1.296773625
H 2.432405957 -0.136605297 3.405457364

