15

C 3.656421705 -1.482940788 1.272101191
C 1.780145158 -0.773040414 -0.725122288
O -0.259551370 -2.475925405 -1.203226645
C -0.828235194 -0.064994976 -0.106787271
N -1.725435943 0.030045587 2.401217822
C -2.202563311 1.616716163 -1.904488230
N -4.070607380 2.912382352 -1.194305418
H 2.728333515 -2.066575842 3.013486611
H 4.862699200 0.134551335 1.699894613
H 4.855709046 -3.026240373 0.613665807
H 2.606850865 -0.004758349 -2.449452212
H -1.660802056 -1.679535025 3.240239875
H -1.484573662 1.561068736 -3.843823313
H -4.826474038 3.922600666 -2.641717937
H -3.506022164 0.727836369 2.428673937

