13

C 2.194784046 0.070418603 2.029466099
N -0.255511173 -0.092309814 0.832766304
C -1.907760083 -1.816796094 2.158739580
H -2.311223168 -1.207698247 4.115835272
H -1.049087033 -3.690656796 2.237833387
H -3.704291662 -1.976561459 1.157876128
C -1.394901641 2.374810600 0.553291060
H -0.161062189 3.597227924 -0.559681811
H -3.195783577 2.212667885 -0.439286642
H -1.749570467 3.311326383 2.386595254
H 2.095480941 0.840097988 3.968995238
H 3.057741843 -1.800532696 2.127346637
H 3.436860474 1.289649716 0.922346144

