14

C -4.398791184 0.677758778 -0.181950768
O -1.915223916 0.087720047 -0.956246206
C -0.118875168 0.568764950 0.878342265
C 2.719157610 -1.479470589 -0.107198210
C 4.902056167 0.130086706 -0.672661053
O 4.391747532 -1.624614368 1.687032815
H -4.936362651 -0.413238355 1.495000925
H -4.591387686 2.696519390 0.238339893
H -5.650406798 0.189488810 -1.738503532
H -0.359503558 -0.513609174 2.622016144
H 0.013389050 2.587888276 1.402150631
H 1.555900279 -2.977167473 -0.883535100
H 2.028330374 0.995913673 -0.197986530
H 6.208808849 -0.915023588 -1.885315768

