13

C 3.863158499 0.429399236 0.143881328
C 1.093864093 -0.108575084 -0.068162554
C 0.119809619 -2.296032473 -0.980995457
N -2.748849686 -1.760136077 -0.737680709
C -3.140642332 0.754114183 0.321287324
C -0.844354463 1.707094299 0.706263936
H 4.417436715 0.806060486 2.099184597
H 4.935578888 -1.193529629 -0.529285094
H 4.408622068 2.076227580 -0.979715943
H -3.479648352 -3.165086734 0.353936727
H -3.501209844 -1.967137073 -2.495863962
H -5.015360989 1.486975315 0.637682563
H -0.488507469 3.566143101 1.484117596

