12

O -3.775275387 -0.325367828 -0.722247939
C -1.819751966 -1.376935864 0.722825723
C 0.728803588 -0.800539330 -0.549152824
C 1.450967000 1.835694452 -0.457573049
C 1.945698244 4.040637420 -0.388262317
C 2.774453528 -2.336211376 1.706204352
N 3.433985728 -2.957971862 -0.344366700
H -3.766436118 1.476125037 -0.503958116
H -1.804083699 -0.680259302 2.665332049
H -2.098029520 -3.416404812 0.748308396
H 0.598869043 -1.435009170 -2.501788347
H 2.416697079 5.996275604 -0.326090082

