10

N -3.770955152 0.118536454 -0.143710459
C -1.365830586 0.158596323 -0.063420437
N 0.155214942 -1.961993239 0.168742112
C 2.628735122 -1.214145463 0.196178667
N 2.860185489 1.192349570 -0.000150101
N 0.417308674 2.047642846 -0.161909845
H -4.511380084 1.873520665 -0.317062747
H -0.544761649 -3.716907398 0.302136858
H 4.197536145 -2.502098811 0.364713665
H 0.086402644 3.902140129 -0.331140677

