10

N -3.431465079 -0.363360130 -0.213720579
C -1.027464692 0.266220894 -0.084639359
N 0.285519911 -1.889330454 0.212228981
C 2.755114411 -1.203980532 0.209836682
N 3.084547211 1.223514556 -0.014420840
N 0.646060588 2.156334053 -0.195611938
H -4.858976099 0.877163775 -0.055636409
H -2.041770862 -2.642431573 0.180691889
H 4.313622607 -2.502071239 0.399440727
H 0.358740411 4.011919289 -0.428703514

