16

C -4.298965173 -0.040177240 -0.450970686
C -1.765854634 1.286687231 -0.117811630
C 0.223147043 -0.415232280 1.024319205
C 1.686223181 -2.255768645 -0.662041170
C 2.901147250 -0.043051608 0.469607468
C 4.939691895 1.352341040 0.712512391
H -4.112848352 -1.682035246 -1.688360046
H -5.706703062 1.221605913 -1.275795567
H -5.033321324 -0.706720022 1.360155190
H -1.078672793 1.978923711 -1.941343105
H -1.994162330 2.956207746 1.080344123
H -0.226685442 -1.128481400 2.898705194
H 4.927570096 3.061318376 1.842497522
H 2.124117983 -4.114065808 0.079857180
H 1.283761198 -2.213550406 -2.673115718
H 6.696353956 0.837777536 -0.207161491

