16

C -4.262848897 0.203489810 0.844251662
C -2.297866565 -0.019388892 -1.263806219
C 0.304808081 0.358996317 -0.260457701
C 2.585325335 -0.603185045 -1.650577202
C 4.873878271 0.030951257 -0.273591733
C 4.697749749 0.025293096 2.151837204
H -3.945299489 -1.226273291 2.295128352
H -6.165777612 -0.045988545 0.094123233
H -4.170363962 2.054655430 1.750352303
H -2.456382367 -1.854567505 -2.199419261
H -2.707826018 1.425509157 -2.700676504
H 0.577633454 2.134566373 0.728761409
H 2.524907484 -0.472204027 2.565721051
H 2.539253453 -2.636781481 -1.997607849
H 2.357557533 0.269793119 -3.538696114
H 5.894794231 0.407795225 3.757516233

