13

N 3.900571732 1.181025651 0.475946743
C 1.635256927 0.399993491 0.152710601
C 0.173355046 -1.796682662 0.145021646
O 1.177093698 -4.179975941 0.471361058
C -2.364267837 -1.227483245 -0.453184746
C -2.747128448 1.273793421 -0.819924878
N -0.263568002 2.480360308 -0.450774344
H 0.385515940 3.396166753 -2.012051177
H 5.067917391 -0.296827030 0.824567103
H 1.233756796 -4.568257627 2.241831348
H -3.832423049 -2.640592189 -0.615982403
H -4.364431957 2.406399489 -1.288449117
H -0.222859559 3.732500341 1.007871274

