13

N 3.631750367 1.668559590 -0.077061633
C 1.126336032 0.778680396 -0.049889790
C 0.095108102 -1.587257185 0.173531509
O 1.517365418 -3.722856275 0.446639774
C -2.570516761 -1.357704423 0.074975923
C -3.088398095 1.170042241 -0.210162867
N -0.861383995 2.435367706 -0.282015036
H 4.643523643 0.892128875 -1.497803276
H 4.536034528 1.299104923 1.563673913
H 0.414813479 -5.156986589 0.494467873
H -3.945435172 -2.858973155 0.205379725
H -4.874900538 2.135070401 -0.358628841
H -0.624296990 4.304823513 -0.483107274

