13

N 3.640981679 1.475344731 -0.181301931
C 1.439613922 0.363490464 0.273605660
C 0.067594955 -1.812123009 0.487295531
O 1.064235021 -4.205730281 0.708217403
C -2.455396403 -1.244402605 -0.421008172
C -2.701603093 1.218425580 -0.997646930
N -0.321701590 2.418686677 -0.318729617
H 1.763365751 3.102201032 -1.224207726
H 5.257918487 0.481326207 -0.065635744
H 0.794021948 -4.810037767 2.394157881
H -3.912826058 -2.654979090 -0.678751036
H -4.308719448 2.331800037 -1.556821312
H -0.548698402 3.496416875 1.259765285

