11

C -0.324998368 2.376196771 -0.116247202
C -2.182341220 0.486031871 0.044493942
C -1.384229999 -1.952322565 0.148890350
N 1.129192542 -2.457626242 0.097114651
C 3.083281983 -0.802917513 -0.053020235
C 2.185408189 1.729247294 -0.160253519
H -0.900595869 4.342877419 -0.204281889
H -4.176972939 0.926121269 0.082997962
H -2.650143149 -3.554825475 0.273699050
H 1.614424398 -4.300153357 0.179928534
H 3.589012567 3.216592391 -0.288894036

