13

C 1.692191617 -3.101945277 -1.100934655
C 1.895576376 -0.624493597 -1.388478746
C 0.893930124 1.280864795 0.424891389
C -1.643183270 2.515791501 0.077446192
N -3.293587562 0.351688690 0.323427741
C -1.282873159 0.767225122 2.154888280
H 0.790296996 -3.902095720 0.558636982
H 2.431125403 -4.409174964 -2.491592236
H 2.828725518 0.135187889 -3.053654195
H 2.327245627 2.550433526 1.185808170
H -2.241285311 4.460568995 0.071512641
H -2.805521401 -1.029867573 -0.920952943
H -1.566761140 1.035980403 4.151436805

