13

C -2.811476740 1.215092897 0.367873703
C -1.299048118 -0.854061987 1.665143702
H -1.526204045 -0.785421842 3.710107483
C -1.697790044 -3.560680678 0.329569956
H -1.619326782 -5.286844487 1.417925290
H -3.443757105 -3.378915367 -0.729151827
C 0.521624258 -2.900019348 -1.631343739
H -0.338466975 -1.789797766 -3.144894670
H 1.722577279 -4.403536985 -2.345007352
C 1.092710737 -1.935731772 0.860030592
H -2.152339191 3.048218889 1.044693193
H -2.608307390 1.193187097 -1.682660065
H -4.819799979 1.066699998 0.821740262

