18

C -2.937196043 1.332897384 0.350057289
C -1.250159410 -0.630938603 1.604982494
C -1.265867986 -3.180906519 0.125345685
C 1.134306198 -2.282109915 -1.317316989
C 1.560789397 -0.806763408 1.068147547
C 3.071902335 2.904031255 -0.278859080
H -2.634476941 3.204509520 1.165076325
H -2.614900078 1.454749816 -1.685611439
H -4.922756397 0.843809920 0.636799550
H -1.701461460 -0.723678726 3.617923354
H -0.913143915 -4.812457127 1.322761687
H -2.938388441 -3.511821015 -1.030773054
H 0.545756136 -1.217512559 -2.990421143
H 2.572452407 -3.656463733 -1.852854582
H 3.135473761 1.109637599 1.189788821
H 1.263433829 3.421277074 -1.081861800
H 3.767087091 4.380030115 0.977607689
H 4.441964642 2.431419671 -1.734537677

