16

C 2.215446916 0.545278867 -1.243092553
C 0.777158958 -0.941379617 0.516328263
O 1.845955948 -3.054519330 1.065478536
C -1.663723119 -0.586170858 -1.743596495
C -2.867539415 1.204438942 0.169810676
C -1.061926928 0.409132887 2.300146746
H 1.972263541 2.573518288 -1.463528047
H 3.026972377 -0.455620584 -2.828905949
H 4.923074343 -0.339393187 0.427776717
H 4.260609761 -1.817161208 0.967459632
H -1.440352106 0.046026793 -3.688069421
H -2.413247025 -2.499381762 -1.726357166
H -4.868139268 0.876857677 0.528467750
H -2.628983375 3.175637320 -0.384018313
H -1.898958022 -1.008303530 3.536265548
H -0.233686802 1.901496019 3.457288187

