19

C 5.663266403 0.210331922 -1.623105440
C 3.170489744 -1.109178736 -1.812742311
C 1.351006780 -0.999950979 -0.094194627
C -3.578215938 3.327461659 2.563852830
C -3.699537035 0.851642211 2.223580864
C -3.403020052 -0.474595154 -0.259594172
C -1.150512508 -2.307708391 -0.307713421
H 7.227081517 -1.138787078 -1.674961302
H 5.803886045 1.292825212 0.125738276
H 5.939751231 1.507808941 -3.206969112
H 2.861637555 -2.240037450 -3.504413100
H -1.204943215 -3.407753986 -2.054992425
H 1.644681181 0.138099447 1.594352407
H -3.246788702 4.606016604 0.994971116
H -3.804603483 4.169686231 4.416124356
H -4.022994048 -0.361842453 3.853906759
H -5.127339507 -1.548659831 -0.654140849
H -3.191086625 0.915752077 -1.773130646
H -1.364131193 -3.658272333 1.249122858

