19

C 4.921008098 0.373816929 -1.315470481
C 2.144727317 -0.183060661 -1.323518541
C 0.515142176 -0.004558284 0.924136678
C -1.462741921 2.308457686 1.452829665
C -3.689423316 0.675990089 1.562979760
C -3.830463535 -1.006531326 -0.622109330
C -1.299156796 -2.124760452 0.259150011
H 5.834838361 -0.410177320 -2.989823461
H 5.848071055 -0.408715239 0.353157782
H 5.279821886 2.418809547 -1.335795695
H 1.190035506 0.398220399 -3.055524797
H 0.425843697 -2.672160726 -1.452656887
H 1.537403885 -0.340718981 2.679863835
H -1.447123750 3.594549899 -0.157116063
H -1.050338315 3.349497736 3.176425979
H -4.515870734 0.105465237 3.346327116
H -5.354751700 -2.382650791 -0.610855935
H -3.698946609 -0.085901356 -2.465632539
H -1.385777212 -3.703751257 1.578708687

