8

C 3.811647759 -0.874882498 -3.258102398
C 2.921267088 0.734164760 -1.607996872
C 2.061326126 2.295037381 -0.008417275
C 1.172875754 3.905683819 1.641143783
H 2.426653649 5.041141975 2.796706395
H -0.844279687 4.152250427 1.901095511
H 2.559520369 -2.011182451 -4.414641413
H 5.829133958 -1.119919429 -3.516909613

