15

C 3.043721605 -1.785299500 -2.058592656
C 3.363136778 0.627008086 -1.066922117
C 2.013380561 2.117442091 0.072049153
C -0.263300038 2.983820009 1.183966046
C -2.361924426 0.953084807 0.095915412
C -1.499690092 -1.814626273 -0.047202637
O -4.232807090 0.720844062 1.690200148
H 3.891985742 -3.390886045 -1.101040120
H 0.436014336 -2.185799173 -1.316697026
H 2.817598414 -2.016020717 -4.087099643
H -0.904547381 4.850331263 0.607901802
H -0.294638538 2.812173331 3.234131846
H -2.781437144 1.694359964 -1.812538976
H -2.887211578 -2.980115805 -1.021293413
H -1.037191377 -2.556108865 1.815514217

