13

C 3.242136612 1.611633518 0.558808664
O 0.802750404 0.874295473 1.364104604
C -0.831778090 -1.973477690 -0.552591975
C -3.171906094 -0.628941105 -0.807708006
O -3.012956316 1.697193060 -1.539137236
H 3.559805829 3.604204661 0.994369748
H 4.626512611 0.472566760 1.571500554
H 3.493537310 1.340576777 -1.478576087
H 0.549819104 -1.696737580 -2.037922756
H -0.692002702 -3.673070382 0.591769645
H -3.391002963 -2.321166775 -2.369306773
H -4.657842929 -1.181600525 0.549210650
H -0.510592925 1.860794966 0.373082109

