16

N 4.267699994 -0.623290446 4.973639332
C 3.388266261 0.307084690 2.819440481
O 2.078085426 -1.508129061 1.680195408
C 0.907901758 -0.804688092 -0.650037724
C -1.788801106 0.051966070 -0.198605076
C -3.217301321 0.503903748 -2.636516069
O -1.995212583 2.463009297 -3.990763994
H 3.929653256 -2.420287011 5.542301708
H 5.332535324 0.487574965 6.076264234
H 2.021620674 0.680925147 -1.538310330
H 0.953812182 -2.494858400 -1.835762236
H -2.785505025 -1.387761595 0.899471274
H -1.764009770 1.787434437 0.921846576
H -3.261278933 -1.243260323 -3.759556249
H -5.177309781 1.019339059 -2.201320306
H -2.881958706 2.750599497 -5.541777234

