14

C 0.688852000 -2.165194544 -0.742613669
C -1.964595297 -1.036048622 -0.552106466
C -1.670996524 1.280864285 1.252408544
O -1.387267356 0.801400913 3.654086439
C 1.085427997 2.127955960 0.486846853
C 2.420679771 -0.017065191 -0.282594445
H 1.104433143 -3.261015959 -2.439107852
H 1.055301416 -3.407897813 0.880950635
H -2.607784031 -0.410831297 -2.418878919
H -3.338107847 -2.366660401 0.204596755
H -3.065720739 2.759799024 0.725136499
H 2.024680292 3.758048436 1.297494310
H 1.240895935 2.174997045 -1.762615001
H 4.466729956 -0.159924404 -0.364974428

