15

C 0.868035699 3.005610875 1.630656692
C 1.488680717 0.382034932 0.777292297
O 2.360899967 -1.282966681 2.603368478
C -2.600086023 -1.326789184 -0.285417015
N -2.425992736 -2.698902391 -2.321823058
C 1.982636040 -0.173951576 -1.676254290
N 1.728018537 -0.970873933 -3.767673076
H 2.518195932 3.946816637 2.454255235
H -0.608352294 2.952422549 3.074422814
H 0.213629948 4.157794203 0.053800144
H 3.696621169 -0.494923694 3.550089008
H -3.269278938 0.604967095 -0.472716332
H -2.595366470 -2.143198907 1.598732131
H -2.002326306 -4.523531873 -1.894961630
H -0.436598393 -1.856761685 -3.646080104

