19

C 5.369202625 0.499055864 0.360810398
C 2.905058227 -0.978761688 0.537216483
C 0.648729410 0.736867711 1.197665823
C -1.603684536 -0.945891924 1.357898177
C -2.751631703 -1.577364431 -1.220552637
O -5.337386006 -0.963623129 -0.858250716
C -5.091763542 1.106030622 0.732463950
H 5.265186600 1.950682434 -1.102614943
H 5.801642033 1.434730170 2.148912966
H 6.946065787 -0.749055008 -0.095982572
H 3.065662497 -2.459995316 1.966424061
H 2.548898842 -1.934652152 -1.262466006
H 0.507500558 2.204753107 -0.275424843
H 1.031968986 1.659396043 3.005449436
H -3.637039106 0.338917543 2.355641067
H -2.546804288 -3.570569766 -1.716507630
H -1.994280060 -0.414899292 -2.790731100
H -4.384231638 2.817542704 -0.197097660
H -6.805708873 1.461509612 1.820885197

