13

C 0.493443434 1.531084452 -0.356925971
C -1.659922634 -0.339846664 -0.618088106
C -2.021972277 -1.545902664 -3.176767773
H -0.229679581 -2.266146265 -3.905275317
H -3.399488343 -3.066479445 -3.057929757
H -2.684453734 -0.117029889 -4.513481799
O -2.986810141 -0.866521537 1.158124211
C 2.911563949 0.170097782 0.458409253
H 2.627173811 -0.789413908 2.260442372
H 3.496604298 -1.238182137 -0.932246797
H 4.459325385 1.511710205 0.682684482
H 0.803380628 2.512465319 -2.147967196
H -0.047183135 2.918845253 1.067613095

