15

C 0.366412037 2.043935203 0.926570022
C -0.379935995 -0.482483740 0.234536215
C 2.713587000 -0.912145270 -0.402760296
C -1.871053571 -0.747285431 -2.211176570
O -1.101309463 -1.863637246 2.132170749
H 0.557598029 3.557135967 -0.449467466
H -2.579947968 2.080807123 2.927584253
H 1.330017838 2.275486898 2.714676181
H 3.744704778 -1.172169733 1.350982856
H 2.556566084 -2.715565070 -1.377941954
H 3.655693783 0.417752325 -1.657759427
H -1.096354696 0.358787087 -3.773008850
H -1.927207028 -2.734751252 -2.751529884
H -3.807700763 -0.136835711 -1.847931411
H -2.534045311 0.491107713 3.145031580

