11

C 2.537810477 0.075381137 0.166383148
C 0.191565695 1.460500857 0.532893810
C -1.799741751 0.307897707 -1.138886346
C -0.846051249 -2.195980299 -0.080397888
O 0.100393987 -0.565811554 2.406457730
H 3.103681746 -0.872427063 -1.545100872
H 3.998635138 0.429577097 1.561010552
H 0.175199854 3.373792433 1.277908640
H -3.706914413 0.897694138 -0.579808018
H -1.536658974 0.609588893 -3.165334326
H -2.278516488 -3.518325528 0.595022260

