14

C 4.488233244 -1.206498611 0.777588096
C 2.337479968 -1.181996233 -1.072962815
C 0.080283276 -0.349013858 -0.590535805
C -2.200502395 0.555533163 -0.235381943
N -4.348393133 -0.885053098 0.424469583
C -2.722571891 3.273113230 -0.757454708
O -1.157006438 4.859117299 -1.174454790
H 6.042787150 -0.043852058 0.076932773
H 5.213003760 -3.123285897 1.025753639
H 3.900097373 -0.476649853 2.609332793
H 2.719745069 -1.899078511 -2.963425725
H -3.929278920 -2.708762075 0.780629232
H -5.323168349 -0.144245762 1.888952452
H -4.767240062 3.747268097 -0.727694111

