19

C 3.746114060 -1.745097580 -0.980345146
C 1.329683886 -1.149612960 0.346659581
O 1.491016854 -0.765383281 2.914630011
C 0.064375788 3.168687437 -0.753598325
C -2.400082172 3.313071942 -0.043195379
C -3.330057424 -0.991525068 0.761713546
C -1.036408029 -1.856064773 -0.523413640
H 5.065664270 -0.156545007 -0.846040761
H 3.407144115 -2.100435539 -2.979664293
H 4.678605784 -3.409233680 -0.171617783
H 3.181714415 -0.282621222 3.347614152
H 1.561030885 3.646392967 0.556289923
H 0.591926700 3.072294888 -2.729955656
H -2.915668491 3.899874687 1.846893913
H -3.895095098 3.384642976 -1.438458638
H -5.138587743 -1.371951447 -0.111875169
H -3.269051150 -0.754033284 2.787986934
H -1.204674307 -2.246288475 -2.525017182
H -2.142336568 -3.499799673 0.667327150

