12

N 5.597965916 -0.521940504 0.561802349
C 3.272254255 -0.468133878 0.527234779
C 0.839843782 -0.287441063 0.194784427
C -1.077157478 1.821531975 0.443997597
C -2.908213106 -0.038022234 -0.871645586
N -1.042344339 -2.096048086 -0.523316867
H 6.318950346 -1.033286107 2.275418584
H -1.585967881 2.261570614 2.390429659
H -0.652688481 3.558680629 -0.571500593
H -3.252547057 0.449785507 -2.848799398
H -4.708555185 -0.390167274 0.067071615
H -0.649788186 -3.167277814 -2.054689219

