27

C     4.22956   1.17782  -0.87931
N     2.88382   0.61770  -0.87304
C     2.09263   0.66476   0.20536
O     2.43219   1.10794   1.29887
C     0.61550   0.21718  -0.03900
N     0.29159  -0.92509   0.53907
C    -1.05197  -1.37887   0.34524
C    -1.30172  -2.30704  -0.70633
N    -1.53989  -3.01822  -1.60432
C    -1.86445  -1.48404   1.51308
N    -2.57432  -1.47071   2.44130
C    -1.72890   0.64878  -0.88461
C    -2.84875   1.15115  -0.04028
C    -0.39350   1.23214  -0.88513
C    -0.24444   2.64714  -0.27885
H     4.60767   1.18757  -1.91941
H     4.22128   2.22114  -0.51004
H     4.93071   0.60273  -0.26069
H     2.52136   0.20037  -1.71630
H    -1.99889   0.00740  -1.73421
H    -3.64591   0.39038   0.03529
H    -2.49390   1.38292   0.97473
H    -3.33359   2.08490  -0.41595
H     0.05576   1.19778  -1.93313
H    -0.87775   3.46734  -0.72064
H    -0.49220   2.60417   0.78606
H     0.79704   2.97840  -0.38455
27

C     4.23095   1.17923  -0.88041
N     2.88618   0.61796  -0.87275
C     2.09913   0.66271   0.20820
O     2.43551   1.11079   1.30068
C     0.63382   0.20071  -0.02572
N     0.28089  -0.92253   0.53425
C    -1.04787  -1.39354   0.35280
C    -1.30151  -2.31101  -0.70510
N    -1.54084  -3.01793  -1.60571
C    -1.86441  -1.48719   1.51652
N    -2.57601  -1.47053   2.44312
C    -1.73311   0.66051  -0.89403
C    -2.85053   1.15186  -0.04007
C    -0.40966   1.24935  -0.90153
C    -0.24561   2.64995  -0.27988
H     4.60782   1.18793  -1.91980
H     4.22149   2.22156  -0.51045
H     4.93127   0.60328  -0.26104
H     2.52209   0.19907  -1.71559
H    -1.99872   0.00742  -1.73402
H    -3.64490   0.38911   0.03587
H    -2.49309   1.38203   0.97456
H    -3.33661   2.08467  -0.41327
H     0.05607   1.19805  -1.93324
H    -0.87654   3.47131  -0.71689
H    -0.49175   2.60193   0.78574
H     0.79720   2.97745  -0.38482
27

C     4.23233   1.18064  -0.88151
N     2.88854   0.61821  -0.87245
C     2.10562   0.66066   0.21105
O     2.43882   1.11365   1.30249
C     0.65215   0.18423  -0.01244
N     0.27020  -0.91997   0.52942
C    -1.04378  -1.40820   0.36035
C    -1.30130  -2.31498  -0.70386
N    -1.54179  -3.01765  -1.60710
C    -1.86437  -1.49035   1.51995
N    -2.57770  -1.47034   2.44493
C    -1.73733   0.67224  -0.90344
C    -2.85230   1.15256  -0.03987
C    -0.42582   1.26657  -0.91793
C    -0.24677   2.65275  -0.28091
H     4.60797   1.18829  -1.92020
H     4.22170   2.22198  -0.51085
H     4.93182   0.60384  -0.26139
H     2.52281   0.19776  -1.71487
H    -1.99856   0.00743  -1.73384
H    -3.64389   0.38783   0.03645
H    -2.49229   1.38114   0.97440
H    -3.33962   2.08444  -0.41059
H     0.05639   1.19831  -1.93334
H    -0.87533   3.47528  -0.71314
H    -0.49129   2.59969   0.78543
H     0.79736   2.97650  -0.38509
27

C     4.23372   1.18205  -0.88261
N     2.89091   0.61847  -0.87216
C     2.11211   0.65861   0.21390
O     2.44213   1.11650   1.30431
C     0.67048   0.16775   0.00084
N     0.25950  -0.91741   0.52460
C    -1.03968  -1.42287   0.36791
C    -1.30109  -2.31895  -0.70263
N    -1.54275  -3.01736  -1.60849
C    -1.86433  -1.49350   1.52339
N    -2.57939  -1.47016   2.44675
C    -1.74155   0.68396  -0.91286
C    -2.85408   1.15327  -0.03966
C    -0.44197   1.28378  -0.93433
C    -0.24794   2.65556  -0.28194
H     4.60812   1.18864  -1.92059
H     4.22191   2.22239  -0.51125
H     4.93238   0.60439  -0.26174
H     2.52353   0.19646  -1.71415
H    -1.99840   0.00744  -1.73366
H    -3.64288   0.38655   0.03703
H    -2.49148   1.38024   0.97424
H    -3.34263   2.08420  -0.40791
H     0.05670   1.19857  -1.93344
H    -0.87412   3.47925  -0.70939
H    -0.49084   2.59745   0.78512
H     0.79752   2.97554  -0.38536
27

C     4.23511   1.18346  -0.88371
N     2.89327   0.61873  -0.87187
C     2.11860   0.65655   0.21675
O     2.44545   1.11935   1.30612
C     0.68880   0.15127   0.01413
N     0.24881  -0.91485   0.51978
C    -1.03558  -1.43754   0.37547
C    -1.30088  -2.32292  -0.70140
N    -1.54370  -3.01707  -1.60988
C    -1.86429  -1.49665   1.52682
N    -2.58109  -1.46997   2.44856
C    -1.74577   0.69569  -0.92228
C    -2.85586   1.15398  -0.03945
C    -0.45813   1.30099  -0.95073
C    -0.24910   2.65836  -0.28296
H     4.60826   1.18900  -1.92098
H     4.22211   2.22281  -0.51166
H     4.93294   0.60495  -0.26209
H     2.52426   0.19516  -1.71344
H    -1.99824   0.00746  -1.73348
H    -3.64187   0.38528   0.03761
H    -2.49068   1.37935   0.97408
H    -3.34565   2.08397  -0.40524
H     0.05701   1.19883  -1.93354
H    -0.87291   3.48322  -0.70563
H    -0.49039   2.59522   0.78481
H     0.79768   2.97459  -0.38563
27

C     4.23650   1.18487  -0.88481
N     2.89563   0.61898  -0.87157
C     2.12510   0.65450   0.21960
O     2.44876   1.12220   1.30793
C     0.70713   0.13480   0.02741
N     0.23811  -0.91229   0.51496
C    -1.03149  -1.45221   0.38303
C    -1.30067  -2.32689  -0.70016
N    -1.54465  -3.01679  -1.61127
C    -1.86425  -1.49981   1.53026
N    -2.58278  -1.46978   2.45038
C    -1.74998   0.70741  -0.93169
C    -2.85763   1.15469  -0.03924
C    -0.47429   1.31821  -0.96713
C    -0.25027   2.66116  -0.28399
H     4.60841   1.18936  -1.92138
H     4.22232   2.22323  -0.51206
H     4.93350   0.60550  -0.26244
H     2.52498   0.19385  -1.71272
H    -1.99808   0.00747  -1.73330
H    -3.64086   0.38400   0.03819
H    -2.48987   1.37845   0.97392
H    -3.34866   2.08374  -0.40256
H     0.05733   1.19909  -1.93365
H    -0.87170   3.48719  -0.70188
H    -0.48993   2.59298   0.78450
H     0.79785   2.97364  -0.38590
27

C     4.23788   1.18628  -0.88591
N     2.89800   0.61924  -0.87128
C     2.13159   0.65245   0.22245
O     2.45208   1.12505   1.30974
C     0.72546   0.11832   0.04069
N     0.22741  -0.90973   0.51014
C    -1.02739  -1.46687   0.39058
C    -1.30046  -2.33087  -0.69893
N    -1.54560  -3.01650  -1.61266
C    -1.86421  -1.50296   1.53369
N    -2.58447  -1.46960   2.45219
C    -1.75420   0.71914  -0.94111
C    -2.85941   1.15540  -0.03903
C    -0.49045   1.33542  -0.98353
C    -0.25143   2.66397  -0.28502
H     4.60856   1.18971  -1.92177
H     4.22253   2.22365  -0.51246
H     4.93406   0.60606  -0.26279
H     2.52571   0.19255  -1.71200
H    -1.99792   0.00749  -1.73312
H    -3.63985   0.38273   0.03877
H    -2.48907   1.37756   0.97376
H    -3.35168   2.08350  -0.39988
H     0.05764   1.19935  -1.93375
H    -0.87049   3.49116  -0.69813
H    -0.48948   2.59074   0.78419
H     0.79801   2.97268  -0.38617
27

C     4.23927   1.18769  -0.88701
N     2.90036   0.61950  -0.87098
C     2.13808   0.65040   0.22530
O     2.45539   1.12790   1.31156
C     0.74378   0.10184   0.05397
N     0.21672  -0.90717   0.50532
C    -1.02329  -1.48154   0.39814
C    -1.30025  -2.33484  -0.69770
N    -1.54656  -3.01622  -1.61405
C    -1.86417  -1.50611   1.53713
N    -2.58616  -1.46941   2.45401
C    -1.75842   0.73087  -0.95052
C    -2.86119   1.15611  -0.03883
C    -0.50660   1.35264  -0.99993
C    -0.25260   2.66677  -0.28605
H     4.60871   1.19007  -1.92216
H     4.22274   2.22407  -0.51287
H     4.93461   0.60661  -0.26314
H     2.52643   0.19125  -1.71128
H    -1.99776   0.00750  -1.73294
H    -3.63884   0.38145   0.03935
H    -2.48826   1.37667   0.97360
H    -3.35469   2.08327  -0.39720
H     0.05796   1.19961  -1.93385
H    -0.86928   3.49513  -0.69438
H    -0.48903   2.58850   0.78388
H     0.79817   2.97173  -0.38644
27

C     4.24066   1.18910  -0.88811
N     2.90272   0.61975  -0.87069
C     2.14457   0.64835   0.22815
O     2.45871   1.13075   1.31337
C     0.76211   0.08537   0.06725
N     0.20602  -0.90461   0.50049
C    -1.01920  -1.49621   0.40570
C    -1.30004  -2.33881  -0.69647
N    -1.54751  -3.01593  -1.61544
C    -1.86413  -1.50927   1.54057
N    -2.58785  -1.46923   2.45582
C    -1.76264   0.74259  -0.95994
C    -2.86296   1.15682  -0.03862
C    -0.52276   1.36985  -1.01633
C    -0.25376   2.66958  -0.28707
H     4.60886   1.19043  -1.92256
H     4.22295   2.22448  -0.51327
H     4.93517   0.60717  -0.26349
H     2.52716   0.18994  -1.71057
H    -1.99760   0.00751  -1.73276
H    -3.63783   0.38017   0.03993
H    -2.48746   1.37577   0.97344
H    -3.35770   2.08304  -0.39452
H     0.05827   1.19987  -1.93395
H    -0.86807   3.49910  -0.69062
H    -0.48857   2.58626   0.78357
H     0.79833   2.97078  -0.38671
27

C     4.24204   1.19051  -0.88921
N     2.90509   0.62001  -0.87039
C     2.15107   0.64630   0.23100
O     2.46202   1.13360   1.31518
C     0.78044   0.06889   0.08053
N     0.19533  -0.90205   0.49567
C    -1.01510  -1.51088   0.41326
C    -1.29983  -2.34278  -0.69523
N    -1.54846  -3.01564  -1.61683
C    -1.86409  -1.51242   1.54400
N    -2.58955  -1.46904   2.45764
C    -1.76685   0.75432  -0.96936
C    -2.86474   1.15752  -0.03841
C    -0.53892   1.38706  -1.03273
C    -0.25493   2.67238  -0.28810
H     4.60900   1.19079  -1.92295
H     4.22316   2.22490  -0.51367
H     4.93573   0.60773  -0.26384
H     2.52788   0.18864  -1.70985
H    -1.99744   0.00753  -1.73258
H    -3.63682   0.37890   0.04051
H    -2.48665   1.37488   0.97328
H    -3.36072   2.08280  -0.39184
H     0.05858   1.20013  -1.93406
H    -0.86686   3.50307  -0.68687
H    -0.48812   2.58402   0.78326
H     0.79849   2.96982  -0.38698
27

C     4.24343   1.19192  -0.89031
N     2.90745   0.62026  -0.87010
C     2.15756   0.64425   0.23385
O     2.46533   1.13645   1.31700
C     0.79877   0.05241   0.09382
N     0.18463  -0.89949   0.49085
C    -1.01100  -1.52554   0.42081
C    -1.29962  -2.34675  -0.69400
N    -1.54941  -3.01536  -1.61822
C    -1.86405  -1.51557   1.54744
N    -2.59124  -1.46885   2.45945
C    -1.77107   0.76604  -0.97877
C    -2.86652   1.15823  -0.03820
C    -0.55507   1.40428  -1.04913
C    -0.25609   2.67518  -0.28913
H     4.60915   1.19114  -1.92334
H     4.22337   2.22532  -0.51408
H     4.93629   0.60828  -0.26419
H     2.52861   0.18733  -1.70913
H    -1.99728   0.00754  -1.73240
H    -3.63581   0.37762   0.04109
H    -2.48585   1.37399   0.97311
H    -3.36373   2.08257  -0.38916
H     0.05890   1.20039  -1.93416
H    -0.86565   3.50703  -0.68312
H    -0.48767   2.58178   0.78295
H     0.79865   2.96887  -0.38725
27

C     4.24482   1.19333  -0.89141
N     2.90981   0.62052  -0.86980
C     2.16405   0.64220   0.23670
O     2.46865   1.13930   1.31881
C     0.81709   0.03593   0.10710
N     0.17393  -0.89693   0.48603
C    -1.00690  -1.54021   0.42837
C    -1.29942  -2.35072  -0.69277
N    -1.55037  -3.01507  -1.61960
C    -1.86401  -1.51873   1.55087
N    -2.59293  -1.46867   2.46127
C    -1.77529   0.77777  -0.98819
C    -2.86830   1.15894  -0.03800
C    -0.57123   1.42149  -1.06552
C    -0.25726   2.67799  -0.29016
H     4.60930   1.19150  -1.92374
H     4.22358   2.22574  -0.51448
H     4.93685   0.60884  -0.26454
H     2.52933   0.18603  -1.70842
H    -1.99712   0.00756  -1.73222
H    -3.63480   0.37634   0.04167
H    -2.48504   1.37309   0.97295
H    -3.36674   2.08234  -0.38649
H     0.05921   1.20065  -1.93426
H    -0.86444   3.51100  -0.67937
H    -0.48721   2.57954   0.78264
H     0.79881   2.96792  -0.38752
27

C     4.24620   1.19474  -0.89250
N     2.91218   0.62078  -0.86951
C     2.17054   0.64015   0.23955
O     2.47196   1.14215   1.32062
C     0.83542   0.01946   0.12038
N     0.16324  -0.89437   0.48121
C    -1.00281  -1.55488   0.43593
C    -1.29921  -2.35469  -0.69153
N    -1.55132  -3.01478  -1.62099
C    -1.86397  -1.52188   1.55431
N    -2.59462  -1.46848   2.46309
C    -1.77951   0.78950  -0.99761
C    -2.87007   1.15965  -0.03779
C    -0.58739   1.43871  -1.08192
C    -0.25842   2.68079  -0.29118
H     4.60945   1.19186  -1.92413
H     4.22379   2.22616  -0.51488
H     4.93740   0.60939  -0.26489
H     2.53005   0.18473  -1.70770
H    -1.99696   0.00757  -1.73204
H    -3.63379   0.37507   0.04225
H    -2.48424   1.37220   0.97279
H    -3.36976   2.08210  -0.38381
H     0.05952   1.20091  -1.93437
H    -0.86323   3.51497  -0.67562
H    -0.48676   2.57730   0.78233
H     0.79897   2.96696  -0.38779
27

C     4.24759   1.19615  -0.89360
N     2.91454   0.62103  -0.86921
C     2.17704   0.63810   0.24240
O     2.47528   1.14500   1.32243
C     0.85375   0.00298   0.13366
N     0.15254  -0.89181   0.47639
C    -0.99871  -1.56955   0.44349
C    -1.29900  -2.35867  -0.69030
N    -1.55227  -3.01450  -1.62238
C    -1.86393  -1.52503   1.55774
N    -2.59632  -1.46830   2.46490
C    -1.78372   0.80122  -1.00702
C    -2.87185   1.16036  -0.03758
C    -0.60355   1.45592  -1.09832
C    -0.25959   2.68359  -0.29221
H     4.60959   1.19221  -1.92452
H     4.22399   2.22658  -0.51528
H     4.93796   0.60995  -0.26524
H     2.53078   0.18342  -1.70698
H    -1.99679   0.00758  -1.73186
H    -3.63278   0.37379   0.04283
H    -2.48343   1.37130   0.97263
H    -3.37277   2.08187  -0.38113
H     0.05984   1.20117  -1.93447
H    -0.86202   3.51894  -0.67186
H    -0.48631   2.57506   0.78202
H     0.79913   2.96601  -0.38806
27

C     4.24898   1.19756  -0.89470
N     2.91691   0.62129  -0.86892
C     2.18353   0.63604   0.24524
O     2.47859   1.14786   1.32425
C     0.87207  -0.01350   0.14694
N     0.14185  -0.88925   0.47156
C    -0.99461  -1.58421   0.45105
C    -1.29879  -2.36264  -0.68907
N    -1.55322  -3.01421  -1.62377
C    -1.86389  -1.52819   1.56118
N    -2.59801  -1.46811   2.46672
C    -1.78794   0.81295  -1.01644
C    -2.87363   1.16107  -0.03737
C    -0.61970   1.47313  -1.11472
C    -0.26075   2.68640  -0.29324
H     4.60974   1.19257  -1.92492
H     4.22420   2.22699  -0.51569
H     4.93852   0.61050  -0.26559
H     2.53150   0.18212  -1.70626
H    -1.99663   0.00760  -1.73168
H    -3.63178   0.37252   0.04341
H    -2.48263   1.37041   0.97247
H    -3.37579   2.08164  -0.37845
H     0.06015   1.20143  -1.93457
H    -0.86081   3.52291  -0.66811
H    -0.48585   2.57282   0.78171
H     0.79929   2.96506  -0.38833
27

C     4.25037   1.19897  -0.89580
N     2.91927   0.62155  -0.86862
C     2.19002   0.63399   0.24809
O     2.48191   1.15071   1.32606
C     0.89040  -0.02998   0.16022
N     0.13115  -0.88669   0.46674
C    -0.99052  -1.59888   0.45860
C    -1.29858  -2.36661  -0.68783
N    -1.55418  -3.01392  -1.62516
C    -1.86385  -1.53134   1.56461
N    -2.59970  -1.46792   2.46853
C    -1.79216   0.82468  -1.02585
C    -2.87540   1.16177  -0.03716
C    -0.63586   1.49035  -1.13112
C    -0.26192   2.68920  -0.29427
H     4.60989   1.19293  -1.92531
H     4.22441   2.22741  -0.51609
H     4.93908   0.61106  -0.26594
H     2.53223   0.18082  -1.70555
H    -1.99647   0.00761  -1.73150
H    -3.63077   0.37124   0.04399
H    -2.48182   1.36952   0.97231
H    -3.37880   2.08140  -0.37577
H     0.06046   1.20169  -1.93467
H    -0.85960   3.52688  -0.66436
H    -0.48540   2.57059   0.78140
H     0.79945   2.96411  -0.38860
27

C     4.25175   1.20038  -0.89690
N     2.92163   0.62180  -0.86833
C     2.19651   0.63194   0.25094
O     2.48522   1.15356   1.32787
C     0.90873  -0.04645   0.17351
N     0.12045  -0.88413   0.46192
C    -0.98642  -1.61355   0.46616
C    -1.29837  -2.37058  -0.68660
N    -1.55513  -3.01364  -1.62655
C    -1.86381  -1.53449   1.56805
N    -2.60139  -1.46774   2.47035
C    -1.79637   0.83640  -1.03527
C    -2.87718   1.16248  -0.03696
C    -0.65202   1.50756  -1.14752
C    -0.26308   2.69201  -0.29529
H     4.61004   1.19328  -1.92570
H     4.22462   2.22783  -0.51649
H     4.93964   0.61161  -0.26629
H     2.53295   0.17951  -1.70483
H    -1.99631   0.00763  -1.73132
H    -3.62976   0.36996   0.04457
H    -2.48102   1.36862   0.97215
H    -3.38181   2.08117  -0.37309
H     0.06078   1.20195  -1.93478
H    -0.85839   3.53085  -0.66061
H    -0.48495   2.56835   0.78109
H     0.79961   2.96315  -0.38888
27

C     4.25314   1.20179  -0.89800
N     2.92400   0.62206  -0.86803
C     2.20300   0.62989   0.25379
O     2.48853   1.15641   1.32969
C     0.92705  -0.06293   0.18679
N     0.10976  -0.88157   0.45710
C    -0.98232  -1.62822   0.47372
C    -1.29816  -2.37455  -0.68537
N    -1.55608  -3.01335  -1.62794
C    -1.86377  -1.53765   1.57148
N    -2.60308  -1.46755   2.47216
C    -1.80059   0.84813  -1.04469
C    -2.87896   1.16319  -0.03675
C    -0.66817   1.52478  -1.16392
C    -0.26425   2.69481  -0.29632
H     4.61019   1.19364  -1.92610
H     4.22483   2.22825  -0.51690
H     4.94019   0.61217  -0.26664
H     2.53368   0.17821  -1.70411
H    -1.99615   0.00764  -1.73114
H    -3.62875   0.36869   0.04514
H    -2.48021   1.36773   0.97199
H    -3.38483   2.08094  -0.37041
H     0.06109   1.20222  -1.93488
H    -0.85719   3.53482  -0.65685
H    -0.48449   2.56611   0.78078
H     0.79977   2.96220  -0.38915
27

C     4.25453   1.20320  -0.89910
N     2.92636   0.62231  -0.86774
C     2.20950   0.62784   0.25664
O     2.49185   1.15926   1.33150
C     0.94538  -0.07941   0.20007
N     0.09906  -0.87901   0.45228
C    -0.97823  -1.64288   0.48128
C    -1.29795  -2.37852  -0.68414
N    -1.55703  -3.01306  -1.62933
C    -1.86373  -1.54080   1.57492
N    -2.60478  -1.46737   2.47398
C    -1.80481   0.85985  -1.05410
C    -2.88074   1.16390  -0.03654
C    -0.68433   1.54199  -1.18032
C    -0.26541   2.69761  -0.29735
H     4.61033   1.19400  -1.92649
H     4.22504   2.22867  -0.51730
H     4.94075   0.61272  -0.26699
H     2.53440   0.17691  -1.70340
H    -1.99599   0.00765  -1.73096
H    -3.62774   0.36741   0.04572
H    -2.47941   1.36684   0.97183
H    -3.38784   2.08070  -0.36774
H     0.06140   1.20248  -1.93498
H    -0.85598   3.53879  -0.65310
H    -0.48404   2.56387   0.78047
H     0.79994   2.96125  -0.38942
27

C     4.25591   1.20460  -0.90020
N     2.92872   0.62257  -0.86744
C     2.21599   0.62579   0.25949
O     2.49516   1.16211   1.33331
C     0.96371  -0.09588   0.21335
N     0.08837  -0.87645   0.44746
C    -0.97413  -1.65755   0.48883
C    -1.29774  -2.38249  -0.68290
N    -1.55799  -3.01278  -1.63072
C    -1.86369  -1.54395   1.57835
N    -2.60647  -1.46718   2.47579
C    -1.80903   0.87158  -1.06352
C    -2.88251   1.16461  -0.03633
C    -0.70049   1.55920  -1.19672
C    -0.26658   2.70042  -0.29838
H     4.61048   1.19435  -1.92688
H     4.22525   2.22908  -0.51770
H     4.94131   0.61328  -0.26734
H     2.53512   0.17560  -1.70268
H    -1.99583   0.00767  -1.73078
H    -3.62673   0.36613   0.04630
H    -2.47860   1.36594   0.97167
H    -3.39086   2.08047  -0.36506
H     0.06172   1.20274  -1.93508
H    -0.85477   3.54276  -0.64935
H    -0.48359   2.56163   0.78016
H     0.80010   2.96029  -0.38969
27

C     4.25730   1.20601  -0.90130
N     2.93109   0.62283  -0.86715
C     2.22248   0.62374   0.26234
O     2.49848   1.16496   1.33512
C     0.98203  -0.11236   0.22663
N     0.07767  -0.87389   0.44263
C    -0.97003  -1.67222   0.49639
C    -1.29753  -2.38646  -0.68167
N    -1.55894  -3.01249  -1.63211
C    -1.86365  -1.54711   1.58179
N    -2.60816  -1.46699   2.47761
C    -1.81324   0.88331  -1.07293
C    -2.88429   1.16532  -0.03612
C    -0.71665   1.57642  -1.21312
C    -0.26774   2.70322  -0.29940
H     4.61063   1.19471  -1.92728
H     4.22546   2.22950  -0.51811
H     4.94187   0.61384  -0.26769
H     2.53585   0.17430  -1.70196
H    -1.99567   0.00768  -1.73060
H    -3.62572   0.36486   0.04688
H    -2.47780   1.36505   0.97150
H    -3.39387   2.08023  -0.36238
H     0.06203   1.20300  -1.93519
H    -0.85356   3.54673  -0.64560
H    -0.48313   2.55939   0.77984
H     0.80026   2.95934  -0.38996
27

C     4.25591   1.20460  -0.90020
N     2.92872   0.62257  -0.86744
C     2.21599   0.62579   0.25949
O     2.49516   1.16211   1.33331
C     0.96371  -0.09588   0.21335
N     0.08837  -0.87645   0.44746
C    -0.97413  -1.65755   0.48883
C    -1.29774  -2.38249  -0.68290
N    -1.55799  -3.01278  -1.63072
C    -1.86369  -1.54395   1.57835
N    -2.60647  -1.46718   2.47579
C    -1.80903   0.87158  -1.06352
C    -2.88251   1.16461  -0.03633
C    -0.70049   1.55920  -1.19672
C    -0.26658   2.70042  -0.29838
H     4.61048   1.19435  -1.92688
H     4.22525   2.22908  -0.51770
H     4.94131   0.61328  -0.26734
H     2.53512   0.17560  -1.70268
H    -1.99583   0.00767  -1.73078
H    -3.62673   0.36613   0.04630
H    -2.47860   1.36594   0.97167
H    -3.39086   2.08047  -0.36506
H     0.06172   1.20274  -1.93508
H    -0.85477   3.54276  -0.64935
H    -0.48359   2.56163   0.78016
H     0.80010   2.96029  -0.38969
27

C     4.25453   1.20320  -0.89910
N     2.92636   0.62231  -0.86774
C     2.20950   0.62784   0.25664
O     2.49185   1.15926   1.33150
C     0.94538  -0.07941   0.20007
N     0.09906  -0.87901   0.45228
C    -0.97823  -1.64288   0.48128
C    -1.29795  -2.37852  -0.68414
N    -1.55703  -3.01306  -1.62933
C    -1.86373  -1.54080   1.57492
N    -2.60478  -1.46737   2.47398
C    -1.80481   0.85985  -1.05410
C    -2.88074   1.16390  -0.03654
C    -0.68433   1.54199  -1.18032
C    -0.26541   2.69761  -0.29735
H     4.61033   1.19400  -1.92649
H     4.22504   2.22867  -0.51730
H     4.94075   0.61272  -0.26699
H     2.53440   0.17691  -1.70340
H    -1.99599   0.00765  -1.73096
H    -3.62774   0.36741   0.04572
H    -2.47941   1.36684   0.97183
H    -3.38784   2.08070  -0.36774
H     0.06140   1.20248  -1.93498
H    -0.85598   3.53879  -0.65310
H    -0.48404   2.56387   0.78047
H     0.79994   2.96125  -0.38942
27

C     4.25314   1.20179  -0.89800
N     2.92400   0.62206  -0.86803
C     2.20300   0.62989   0.25379
O     2.48853   1.15641   1.32969
C     0.92705  -0.06293   0.18679
N     0.10976  -0.88157   0.45710
C    -0.98232  -1.62822   0.47372
C    -1.29816  -2.37455  -0.68537
N    -1.55608  -3.01335  -1.62794
C    -1.86377  -1.53765   1.57148
N    -2.60308  -1.46755   2.47216
C    -1.80059   0.84813  -1.04469
C    -2.87896   1.16319  -0.03675
C    -0.66817   1.52478  -1.16392
C    -0.26425   2.69481  -0.29632
H     4.61019   1.19364  -1.92610
H     4.22483   2.22825  -0.51690
H     4.94019   0.61217  -0.26664
H     2.53368   0.17821  -1.70411
H    -1.99615   0.00764  -1.73114
H    -3.62875   0.36869   0.04514
H    -2.48021   1.36773   0.97199
H    -3.38483   2.08094  -0.37041
H     0.06109   1.20222  -1.93488
H    -0.85719   3.53482  -0.65685
H    -0.48449   2.56611   0.78078
H     0.79977   2.96220  -0.38915
27

C     4.25175   1.20038  -0.89690
N     2.92163   0.62180  -0.86833
C     2.19651   0.63194   0.25094
O     2.48522   1.15356   1.32787
C     0.90873  -0.04645   0.17351
N     0.12045  -0.88413   0.46192
C    -0.98642  -1.61355   0.46616
C    -1.29837  -2.37058  -0.68660
N    -1.55513  -3.01364  -1.62655
C    -1.86381  -1.53449   1.56805
N    -2.60139  -1.46774   2.47035
C    -1.79637   0.83640  -1.03527
C    -2.87718   1.16248  -0.03696
C    -0.65202   1.50756  -1.14752
C    -0.26308   2.69201  -0.29529
H     4.61004   1.19328  -1.92570
H     4.22462   2.22783  -0.51649
H     4.93964   0.61161  -0.26629
H     2.53295   0.17951  -1.70483
H    -1.99631   0.00763  -1.73132
H    -3.62976   0.36996   0.04457
H    -2.48102   1.36862   0.97215
H    -3.38181   2.08117  -0.37309
H     0.06078   1.20195  -1.93478
H    -0.85839   3.53085  -0.66061
H    -0.48495   2.56835   0.78109
H     0.79961   2.96315  -0.38888
27

C     4.25037   1.19897  -0.89580
N     2.91927   0.62155  -0.86862
C     2.19002   0.63399   0.24809
O     2.48191   1.15071   1.32606
C     0.89040  -0.02998   0.16022
N     0.13115  -0.88669   0.46674
C    -0.99052  -1.59888   0.45860
C    -1.29858  -2.36661  -0.68783
N    -1.55418  -3.01392  -1.62516
C    -1.86385  -1.53134   1.56461
N    -2.59970  -1.46792   2.46853
C    -1.79216   0.82468  -1.02585
C    -2.87540   1.16177  -0.03716
C    -0.63586   1.49035  -1.13112
C    -0.26192   2.68920  -0.29427
H     4.60989   1.19293  -1.92531
H     4.22441   2.22741  -0.51609
H     4.93908   0.61106  -0.26594
H     2.53223   0.18082  -1.70555
H    -1.99647   0.00761  -1.73150
H    -3.63077   0.37124   0.04399
H    -2.48182   1.36952   0.97231
H    -3.37880   2.08140  -0.37577
H     0.06046   1.20169  -1.93467
H    -0.85960   3.52688  -0.66436
H    -0.48540   2.57059   0.78140
H     0.79945   2.96411  -0.38860
27

C     4.24898   1.19756  -0.89470
N     2.91691   0.62129  -0.86892
C     2.18353   0.63604   0.24524
O     2.47859   1.14786   1.32425
C     0.87207  -0.01350   0.14694
N     0.14185  -0.88925   0.47156
C    -0.99461  -1.58421   0.45105
C    -1.29879  -2.36264  -0.68907
N    -1.55322  -3.01421  -1.62377
C    -1.86389  -1.52819   1.56118
N    -2.59801  -1.46811   2.46672
C    -1.78794   0.81295  -1.01644
C    -2.87363   1.16107  -0.03737
C    -0.61970   1.47313  -1.11472
C    -0.26075   2.68640  -0.29324
H     4.60974   1.19257  -1.92492
H     4.22420   2.22699  -0.51569
H     4.93852   0.61050  -0.26559
H     2.53150   0.18212  -1.70626
H    -1.99663   0.00760  -1.73168
H    -3.63178   0.37252   0.04341
H    -2.48263   1.37041   0.97247
H    -3.37579   2.08164  -0.37845
H     0.06015   1.20143  -1.93457
H    -0.86081   3.52291  -0.66811
H    -0.48585   2.57282   0.78171
H     0.79929   2.96506  -0.38833
27

C     4.24759   1.19615  -0.89360
N     2.91454   0.62103  -0.86921
C     2.17704   0.63810   0.24240
O     2.47528   1.14500   1.32243
C     0.85375   0.00298   0.13366
N     0.15254  -0.89181   0.47639
C    -0.99871  -1.56955   0.44349
C    -1.29900  -2.35867  -0.69030
N    -1.55227  -3.01450  -1.62238
C    -1.86393  -1.52503   1.55774
N    -2.59632  -1.46830   2.46490
C    -1.78372   0.80122  -1.00702
C    -2.87185   1.16036  -0.03758
C    -0.60355   1.45592  -1.09832
C    -0.25959   2.68359  -0.29221
H     4.60959   1.19221  -1.92452
H     4.22399   2.22658  -0.51528
H     4.93796   0.60995  -0.26524
H     2.53078   0.18342  -1.70698
H    -1.99679   0.00758  -1.73186
H    -3.63278   0.37379   0.04283
H    -2.48343   1.37130   0.97263
H    -3.37277   2.08187  -0.38113
H     0.05984   1.20117  -1.93447
H    -0.86202   3.51894  -0.67186
H    -0.48631   2.57506   0.78202
H     0.79913   2.96601  -0.38806
27

C     4.24620   1.19474  -0.89250
N     2.91218   0.62078  -0.86951
C     2.17054   0.64015   0.23955
O     2.47196   1.14215   1.32062
C     0.83542   0.01946   0.12038
N     0.16324  -0.89437   0.48121
C    -1.00281  -1.55488   0.43593
C    -1.29921  -2.35469  -0.69153
N    -1.55132  -3.01478  -1.62099
C    -1.86397  -1.52188   1.55431
N    -2.59462  -1.46848   2.46309
C    -1.77951   0.78950  -0.99761
C    -2.87007   1.15965  -0.03779
C    -0.58739   1.43871  -1.08192
C    -0.25842   2.68079  -0.29118
H     4.60945   1.19186  -1.92413
H     4.22379   2.22616  -0.51488
H     4.93740   0.60939  -0.26489
H     2.53005   0.18473  -1.70770
H    -1.99696   0.00757  -1.73204
H    -3.63379   0.37507   0.04225
H    -2.48424   1.37220   0.97279
H    -3.36976   2.08210  -0.38381
H     0.05952   1.20091  -1.93437
H    -0.86323   3.51497  -0.67562
H    -0.48676   2.57730   0.78233
H     0.79897   2.96696  -0.38779
27

C     4.24482   1.19333  -0.89141
N     2.90981   0.62052  -0.86980
C     2.16405   0.64220   0.23670
O     2.46865   1.13930   1.31881
C     0.81709   0.03593   0.10710
N     0.17393  -0.89693   0.48603
C    -1.00690  -1.54021   0.42837
C    -1.29942  -2.35072  -0.69277
N    -1.55037  -3.01507  -1.61960
C    -1.86401  -1.51873   1.55087
N    -2.59293  -1.46867   2.46127
C    -1.77529   0.77777  -0.98819
C    -2.86830   1.15894  -0.03800
C    -0.57123   1.42149  -1.06552
C    -0.25726   2.67799  -0.29016
H     4.60930   1.19150  -1.92374
H     4.22358   2.22574  -0.51448
H     4.93685   0.60884  -0.26454
H     2.52933   0.18603  -1.70842
H    -1.99712   0.00756  -1.73222
H    -3.63480   0.37634   0.04167
H    -2.48504   1.37309   0.97295
H    -3.36674   2.08234  -0.38649
H     0.05921   1.20065  -1.93426
H    -0.86444   3.51100  -0.67937
H    -0.48721   2.57954   0.78264
H     0.79881   2.96792  -0.38752
27

C     4.24343   1.19192  -0.89031
N     2.90745   0.62026  -0.87010
C     2.15756   0.64425   0.23385
O     2.46533   1.13645   1.31700
C     0.79877   0.05241   0.09382
N     0.18463  -0.89949   0.49085
C    -1.01100  -1.52554   0.42081
C    -1.29962  -2.34675  -0.69400
N    -1.54941  -3.01536  -1.61822
C    -1.86405  -1.51557   1.54744
N    -2.59124  -1.46885   2.45945
C    -1.77107   0.76604  -0.97877
C    -2.86652   1.15823  -0.03820
C    -0.55507   1.40428  -1.04913
C    -0.25609   2.67518  -0.28913
H     4.60915   1.19114  -1.92334
H     4.22337   2.22532  -0.51408
H     4.93629   0.60828  -0.26419
H     2.52861   0.18733  -1.70913
H    -1.99728   0.00754  -1.73240
H    -3.63581   0.37762   0.04109
H    -2.48585   1.37399   0.97311
H    -3.36373   2.08257  -0.38916
H     0.05890   1.20039  -1.93416
H    -0.86565   3.50703  -0.68312
H    -0.48767   2.58178   0.78295
H     0.79865   2.96887  -0.38725
27

C     4.24204   1.19051  -0.88921
N     2.90509   0.62001  -0.87039
C     2.15107   0.64630   0.23100
O     2.46202   1.13360   1.31518
C     0.78044   0.06889   0.08053
N     0.19533  -0.90205   0.49567
C    -1.01510  -1.51088   0.41326
C    -1.29983  -2.34278  -0.69523
N    -1.54846  -3.01564  -1.61683
C    -1.86409  -1.51242   1.54400
N    -2.58955  -1.46904   2.45764
C    -1.76685   0.75432  -0.96936
C    -2.86474   1.15752  -0.03841
C    -0.53892   1.38706  -1.03273
C    -0.25493   2.67238  -0.28810
H     4.60900   1.19079  -1.92295
H     4.22316   2.22490  -0.51367
H     4.93573   0.60773  -0.26384
H     2.52788   0.18864  -1.70985
H    -1.99744   0.00753  -1.73258
H    -3.63682   0.37890   0.04051
H    -2.48665   1.37488   0.97328
H    -3.36072   2.08280  -0.39184
H     0.05858   1.20013  -1.93406
H    -0.86686   3.50307  -0.68687
H    -0.48812   2.58402   0.78326
H     0.79849   2.96982  -0.38698
27

C     4.24066   1.18910  -0.88811
N     2.90272   0.61975  -0.87069
C     2.14457   0.64835   0.22815
O     2.45871   1.13075   1.31337
C     0.76211   0.08537   0.06725
N     0.20602  -0.90461   0.50049
C    -1.01920  -1.49621   0.40570
C    -1.30004  -2.33881  -0.69647
N    -1.54751  -3.01593  -1.61544
C    -1.86413  -1.50927   1.54057
N    -2.58785  -1.46923   2.45582
C    -1.76264   0.74259  -0.95994
C    -2.86296   1.15682  -0.03862
C    -0.52276   1.36985  -1.01633
C    -0.25376   2.66958  -0.28707
H     4.60886   1.19043  -1.92256
H     4.22295   2.22448  -0.51327
H     4.93517   0.60717  -0.26349
H     2.52716   0.18994  -1.71057
H    -1.99760   0.00751  -1.73276
H    -3.63783   0.38017   0.03993
H    -2.48746   1.37577   0.97344
H    -3.35770   2.08304  -0.39452
H     0.05827   1.19987  -1.93395
H    -0.86807   3.49910  -0.69062
H    -0.48857   2.58626   0.78357
H     0.79833   2.97078  -0.38671
27

C     4.23927   1.18769  -0.88701
N     2.90036   0.61950  -0.87098
C     2.13808   0.65040   0.22530
O     2.45539   1.12790   1.31156
C     0.74378   0.10184   0.05397
N     0.21672  -0.90717   0.50532
C    -1.02329  -1.48154   0.39814
C    -1.30025  -2.33484  -0.69770
N    -1.54656  -3.01622  -1.61405
C    -1.86417  -1.50611   1.53713
N    -2.58616  -1.46941   2.45401
C    -1.75842   0.73087  -0.95052
C    -2.86119   1.15611  -0.03883
C    -0.50660   1.35264  -0.99993
C    -0.25260   2.66677  -0.28605
H     4.60871   1.19007  -1.92216
H     4.22274   2.22407  -0.51287
H     4.93461   0.60661  -0.26314
H     2.52643   0.19125  -1.71128
H    -1.99776   0.00750  -1.73294
H    -3.63884   0.38145   0.03935
H    -2.48826   1.37667   0.97360
H    -3.35469   2.08327  -0.39720
H     0.05796   1.19961  -1.93385
H    -0.86928   3.49513  -0.69438
H    -0.48903   2.58850   0.78388
H     0.79817   2.97173  -0.38644
27

C     4.23788   1.18628  -0.88591
N     2.89800   0.61924  -0.87128
C     2.13159   0.65245   0.22245
O     2.45208   1.12505   1.30974
C     0.72546   0.11832   0.04069
N     0.22741  -0.90973   0.51014
C    -1.02739  -1.46687   0.39058
C    -1.30046  -2.33087  -0.69893
N    -1.54560  -3.01650  -1.61266
C    -1.86421  -1.50296   1.53369
N    -2.58447  -1.46960   2.45219
C    -1.75420   0.71914  -0.94111
C    -2.85941   1.15540  -0.03903
C    -0.49045   1.33542  -0.98353
C    -0.25143   2.66397  -0.28502
H     4.60856   1.18971  -1.92177
H     4.22253   2.22365  -0.51246
H     4.93406   0.60606  -0.26279
H     2.52571   0.19255  -1.71200
H    -1.99792   0.00749  -1.73312
H    -3.63985   0.38273   0.03877
H    -2.48907   1.37756   0.97376
H    -3.35168   2.08350  -0.39988
H     0.05764   1.19935  -1.93375
H    -0.87049   3.49116  -0.69813
H    -0.48948   2.59074   0.78419
H     0.79801   2.97268  -0.38617
27

C     4.23650   1.18487  -0.88481
N     2.89563   0.61898  -0.87157
C     2.12510   0.65450   0.21960
O     2.44876   1.12220   1.30793
C     0.70713   0.13480   0.02741
N     0.23811  -0.91229   0.51496
C    -1.03149  -1.45221   0.38303
C    -1.30067  -2.32689  -0.70016
N    -1.54465  -3.01679  -1.61127
C    -1.86425  -1.49981   1.53026
N    -2.58278  -1.46978   2.45038
C    -1.74998   0.70741  -0.93169
C    -2.85763   1.15469  -0.03924
C    -0.47429   1.31821  -0.96713
C    -0.25027   2.66116  -0.28399
H     4.60841   1.18936  -1.92138
H     4.22232   2.22323  -0.51206
H     4.93350   0.60550  -0.26244
H     2.52498   0.19385  -1.71272
H    -1.99808   0.00747  -1.73330
H    -3.64086   0.38400   0.03819
H    -2.48987   1.37845   0.97392
H    -3.34866   2.08374  -0.40256
H     0.05733   1.19909  -1.93365
H    -0.87170   3.48719  -0.70188
H    -0.48993   2.59298   0.78450
H     0.79785   2.97364  -0.38590
27

C     4.23511   1.18346  -0.88371
N     2.89327   0.61873  -0.87187
C     2.11860   0.65655   0.21675
O     2.44545   1.11935   1.30612
C     0.68880   0.15127   0.01413
N     0.24881  -0.91485   0.51978
C    -1.03558  -1.43754   0.37547
C    -1.30088  -2.32292  -0.70140
N    -1.54370  -3.01707  -1.60988
C    -1.86429  -1.49665   1.52682
N    -2.58109  -1.46997   2.44856
C    -1.74577   0.69569  -0.92228
C    -2.85586   1.15398  -0.03945
C    -0.45813   1.30099  -0.95073
C    -0.24910   2.65836  -0.28296
H     4.60826   1.18900  -1.92098
H     4.22211   2.22281  -0.51166
H     4.93294   0.60495  -0.26209
H     2.52426   0.19516  -1.71344
H    -1.99824   0.00746  -1.73348
H    -3.64187   0.38528   0.03761
H    -2.49068   1.37935   0.97408
H    -3.34565   2.08397  -0.40524
H     0.05701   1.19883  -1.93354
H    -0.87291   3.48322  -0.70563
H    -0.49039   2.59522   0.78481
H     0.79768   2.97459  -0.38563
27

C     4.23372   1.18205  -0.88261
N     2.89091   0.61847  -0.87216
C     2.11211   0.65861   0.21390
O     2.44213   1.11650   1.30431
C     0.67048   0.16775   0.00084
N     0.25950  -0.91741   0.52460
C    -1.03968  -1.42287   0.36791
C    -1.30109  -2.31895  -0.70263
N    -1.54275  -3.01736  -1.60849
C    -1.86433  -1.49350   1.52339
N    -2.57939  -1.47016   2.44675
C    -1.74155   0.68396  -0.91286
C    -2.85408   1.15327  -0.03966
C    -0.44197   1.28378  -0.93433
C    -0.24794   2.65556  -0.28194
H     4.60812   1.18864  -1.92059
H     4.22191   2.22239  -0.51125
H     4.93238   0.60439  -0.26174
H     2.52353   0.19646  -1.71415
H    -1.99840   0.00744  -1.73366
H    -3.64288   0.38655   0.03703
H    -2.49148   1.38024   0.97424
H    -3.34263   2.08420  -0.40791
H     0.05670   1.19857  -1.93344
H    -0.87412   3.47925  -0.70939
H    -0.49084   2.59745   0.78512
H     0.79752   2.97554  -0.38536
27

C     4.23233   1.18064  -0.88151
N     2.88854   0.61821  -0.87245
C     2.10562   0.66066   0.21105
O     2.43882   1.11365   1.30249
C     0.65215   0.18423  -0.01244
N     0.27020  -0.91997   0.52942
C    -1.04378  -1.40820   0.36035
C    -1.30130  -2.31498  -0.70386
N    -1.54179  -3.01765  -1.60710
C    -1.86437  -1.49035   1.51995
N    -2.57770  -1.47034   2.44493
C    -1.73733   0.67224  -0.90344
C    -2.85230   1.15256  -0.03987
C    -0.42582   1.26657  -0.91793
C    -0.24677   2.65275  -0.28091
H     4.60797   1.18829  -1.92020
H     4.22170   2.22198  -0.51085
H     4.93182   0.60384  -0.26139
H     2.52281   0.19776  -1.71487
H    -1.99856   0.00743  -1.73384
H    -3.64389   0.38783   0.03645
H    -2.49229   1.38114   0.97440
H    -3.33962   2.08444  -0.41059
H     0.05639   1.19831  -1.93334
H    -0.87533   3.47528  -0.71314
H    -0.49129   2.59969   0.78543
H     0.79736   2.97650  -0.38509
27

C     4.23095   1.17923  -0.88041
N     2.88618   0.61796  -0.87275
C     2.09913   0.66271   0.20820
O     2.43551   1.11079   1.30068
C     0.63382   0.20071  -0.02572
N     0.28089  -0.92253   0.53425
C    -1.04787  -1.39354   0.35280
C    -1.30151  -2.31101  -0.70510
N    -1.54084  -3.01793  -1.60571
C    -1.86441  -1.48719   1.51652
N    -2.57601  -1.47053   2.44312
C    -1.73311   0.66051  -0.89403
C    -2.85053   1.15186  -0.04007
C    -0.40966   1.24935  -0.90153
C    -0.24561   2.64995  -0.27988
H     4.60782   1.18793  -1.91980
H     4.22149   2.22156  -0.51045
H     4.93127   0.60328  -0.26104
H     2.52209   0.19907  -1.71559
H    -1.99872   0.00742  -1.73402
H    -3.64490   0.38911   0.03587
H    -2.49309   1.38203   0.97456
H    -3.33661   2.08467  -0.41327
H     0.05607   1.19805  -1.93324
H    -0.87654   3.47131  -0.71689
H    -0.49175   2.60193   0.78574
H     0.79720   2.97745  -0.38482
