12

O -3.250996102 2.005900326 2.503762280
C -1.852896099 0.750808636 1.236386047
C -2.584288952 -0.962732105 -0.936540671
H -4.528401527 -1.354102511 -1.458527832
N -0.713507370 -1.915851758 -2.087344385
C 1.602522846 -1.101092863 -0.864077535
H 3.201938113 -0.786806331 -2.092376140
C 0.959384474 0.547296244 1.345373016
H 2.066419316 2.141155924 1.974322511
C 1.945020720 -2.119651275 1.735735971
H 3.842212605 -2.270353513 2.483191496
H 0.641893024 -3.569559235 2.360972873

