15

C -4.485001359 -0.044054618 -1.029171757
N -2.178628740 -0.806884086 0.260456095
C -1.267077240 -1.212618924 2.524589443
N 1.246267822 -0.719686378 2.666109048
C 1.951676600 0.087365421 0.406061893
C 4.568000455 0.929693815 -0.156510122
C -0.161259344 -0.048499915 -1.318576302
H -6.008911333 -1.416318399 -0.864309026
H -5.037140631 1.819427689 -0.354864223
H -1.902276249 1.162761713 -2.517236310
H -2.414483926 -1.724356097 4.133382929
H 5.237653574 0.142935709 -1.942016226
H 4.630807940 2.985924672 -0.333730887
H 5.834960229 0.362298614 1.359926420
H 0.107048204 -1.338108077 -2.908178788

