12

N -4.094991007 -0.298296047 0.463732782
C -1.780591342 0.518368449 0.924239763
C 1.870212850 1.703223894 -1.305451946
N 3.361887215 0.739479142 0.556872337
C 2.051760275 -1.376216162 0.979966936
C 0.095777310 -0.532845338 -0.880095799
H -5.532311104 0.267628343 1.570773387
H -4.562584707 -1.503025553 -0.957276862
H 1.452808594 3.698080642 -1.476717561
H 4.791118831 1.537582332 1.537645789
H 2.607834430 -3.089384078 1.922891801
H -0.509316415 -1.759178326 -2.433013749

