12

N -4.039166135 0.157522335 0.073221464
C -1.693607078 0.223971021 0.947387566
C 1.285630193 1.880956378 -1.006959236
N 3.195897660 0.828999796 0.398183077
C 2.531848807 -1.554272072 0.728325790
C 0.003647644 -1.462287215 -0.271796323
H -5.364303661 1.294962190 0.811929390
H -4.608399246 -0.957388621 -1.380841002
H 0.766652913 3.788131516 -0.408272400
H 4.606821268 1.773544761 1.270736393
H 3.755406542 -3.094324597 1.257771246
H -0.688820177 -2.974398174 -1.516120996

