12

O 1.653356497 0.252655608 0.742496921
C 0.825470884 0.927849556 -1.565478204
C 4.038063839 -0.414156497 0.954623649
C 6.165974975 -1.045925578 1.327763603
C -1.875151196 1.435160461 -1.360955622
C -3.453894087 -0.762996311 -0.473228315
N -3.312690898 1.502583981 1.008378307
H 8.076686074 -1.596481146 1.615542190
H -2.641098787 2.571341040 -2.878377580
H -2.461585841 -2.440010725 0.162963329
H -5.219665006 -1.091749887 -1.454203099
H -2.120843296 1.258881063 2.489569624

