8

C 3.129916908 0.178443077 -0.567696537
C 5.332431824 1.330571660 -0.891552377
H 7.097510177 0.311698929 -0.654843222
H 5.465868617 3.307958079 -1.400801669
C 3.027132040 -2.518637599 0.127670728
O 1.102788004 -3.681762252 0.453707955
H 4.899244840 -3.444369830 0.337670002
H 1.334113026 1.140763751 -0.789765302

