15

C 3.474967519 0.582343161 0.264660452
C 0.682144530 0.185638663 0.119565069
C -1.335762927 1.136255261 1.981072802
C -3.103740932 -0.801206460 0.878717961
O -3.159361374 0.810591558 -2.551537523
C -0.772382128 -0.287988706 -2.296636467
C -0.865467599 -2.210837817 -0.215371935
H 4.223907557 -0.026579092 2.088960385
H 4.446564462 -0.491879137 -1.205183211
H 3.946388482 2.574843440 0.004221365
H -1.934065241 3.108283626 2.006465014
H -0.824582637 0.504162017 3.883412319
H -4.509584938 -0.196222301 -0.960864696
H 0.278945818 -0.550838063 -4.038742345
H -0.455916383 -4.207169043 -0.316492711

