10

O 3.547891333 -0.375483195 -0.919883963
C 1.133135021 0.106733338 -0.264623244
C -0.650172273 -1.452444747 0.902467057
N -2.937053047 0.021693905 1.207715330
N -2.522965544 2.229068289 0.130975708
C -0.126774072 2.361760303 -0.668248184
H 4.026249120 -2.036627405 -0.377342459
H -0.424056375 -3.184429290 1.961007917
H -2.643710521 -1.727240480 -0.420797977
H 0.595124456 4.054516419 -1.549730058

