14

C 4.445300651 0.565517380 0.007531674
N 2.343135729 1.250371192 -1.263011589
C 0.005320240 0.573983599 -0.771925626
N -2.028352635 1.362084223 -2.153094798
N -3.927380067 0.258785615 -1.002432794
C -3.439891103 -1.181036668 0.989688708
C -0.657898135 -1.128449766 1.378801685
H -0.019367312 -0.346286227 3.216478629
H 4.275902993 -0.686564656 1.599298803
H 6.228563952 1.283089098 -0.648617085
H 2.554413100 2.416536358 -2.760791810
H -5.670132704 0.568337362 -1.705440146
H -4.918798233 -2.136963056 2.006312230
H 0.302804971 -2.986092366 1.235272602

