13

O 3.759931397 -2.457740305 -0.591243979
C 2.816541830 -0.403578925 -0.776105890
C 0.194448075 0.136580844 0.085742411
C -0.737219559 -1.009153057 2.499424829
C -1.759617668 -1.900055897 0.027944627
C -0.357849707 3.463024753 -2.669020625
O -0.658256918 2.651730783 -0.378726891
H 3.840797710 1.232994688 -1.570704771
H -1.923082228 0.195143060 3.649204501
H 0.579690269 -2.208247286 3.501991264
H -3.645513431 -1.318245071 -0.503358883
H -1.127745144 -3.705578112 -0.693594230
H -1.136830853 5.411556131 -2.567014701

