24

C     3.63934  -0.37719   0.03016
N     2.65718  -1.27582  -0.56010
C     1.41937  -0.96384  -0.96238
O     0.62019  -1.78955  -1.40352
C     0.96315   0.52935  -0.76707
N     0.05521   0.81416  -1.93586
N    -1.01024   1.34237  -1.58520
C    -1.08686   1.56401   0.20286
C    -2.36581   0.88309   0.48568
O    -3.46086   1.42437   0.30949
C    -2.29904  -0.55058   0.87174
C    -1.16202  -1.11925   1.31311
C     0.09271  -0.34735   1.43385
O     1.03125  -0.76917   2.09549
C     0.23148   0.91915   0.58021
H     3.25168   0.09300   0.94287
H     4.52860  -0.96044   0.28724
H     3.93789   0.40469  -0.68470
H     2.84508  -2.28498  -0.50448
H     1.87373   1.21553  -1.01545
H    -1.17123   2.68518   0.29782
H    -3.23789  -1.11541   0.80091
H    -1.11172  -2.16569   1.62341
H     0.91997   1.64679   1.14902
24

C     3.63896  -0.37733   0.02971
N     2.65755  -1.27710  -0.55987
C     1.42119  -0.96501  -0.96792
O     0.61968  -1.79204  -1.40316
C     0.97504   0.52481  -0.79029
N     0.05534   0.81507  -1.92494
N    -1.00864   1.33772  -1.60601
C    -1.08839   1.56831   0.22288
C    -2.36628   0.88314   0.48742
O    -3.46100   1.42388   0.30837
C    -2.29934  -0.55132   0.87105
C    -1.16213  -1.11958   1.31203
C     0.09118  -0.34539   1.43558
O     1.03176  -0.76936   2.09354
C     0.21970   0.92843   0.60228
H     3.25148   0.09323   0.94259
H     4.52861  -0.96025   0.28727
H     3.93776   0.40449  -0.68501
H     2.84396  -2.28528  -0.50166
H     1.87493   1.21657  -1.01768
H    -1.17165   2.68572   0.29721
H    -3.23788  -1.11571   0.80014
H    -1.11136  -2.16594   1.62247
H     0.92117   1.64730   1.14777
24

C     3.63858  -0.37747   0.02926
N     2.65792  -1.27838  -0.55964
C     1.42301  -0.96617  -0.97347
O     0.61918  -1.79454  -1.40281
C     0.98693   0.52027  -0.81351
N     0.05548   0.81598  -1.91401
N    -1.00704   1.33308  -1.62681
C    -1.08992   1.57262   0.24290
C    -2.36674   0.88318   0.48917
O    -3.46113   1.42338   0.30725
C    -2.29965  -0.55206   0.87037
C    -1.16225  -1.11991   1.31094
C     0.08966  -0.34343   1.43730
O     1.03226  -0.76956   2.09158
C     0.20792   0.93770   0.62435
H     3.25128   0.09346   0.94231
H     4.52861  -0.96005   0.28731
H     3.93762   0.40430  -0.68531
H     2.84283  -2.28558  -0.49883
H     1.87613   1.21761  -1.01992
H    -1.17207   2.68626   0.29659
H    -3.23786  -1.11601   0.79937
H    -1.11100  -2.16619   1.62152
H     0.92238   1.64782   1.14653
24

C     3.63821  -0.37762   0.02881
N     2.65829  -1.27966  -0.55941
C     1.42484  -0.96734  -0.97902
O     0.61867  -1.79704  -1.40245
C     0.99882   0.51573  -0.83673
N     0.05561   0.81689  -1.90309
N    -1.00543   1.32843  -1.64762
C    -1.09146   1.57692   0.26292
C    -2.36721   0.88323   0.49092
O    -3.46126   1.42289   0.30613
C    -2.29996  -0.55280   0.86969
C    -1.16237  -1.12023   1.30986
C     0.08814  -0.34147   1.43903
O     1.03276  -0.76976   2.08962
C     0.19614   0.94698   0.64642
H     3.25109   0.09369   0.94203
H     4.52862  -0.95986   0.28735
H     3.93748   0.40410  -0.68562
H     2.84170  -2.28588  -0.49600
H     1.87734   1.21865  -1.02216
H    -1.17249   2.68680   0.29598
H    -3.23784  -1.11631   0.79860
H    -1.11064  -2.16645   1.62058
H     0.92358   1.64833   1.14528
24

C     3.63783  -0.37776   0.02837
N     2.65866  -1.28094  -0.55918
C     1.42666  -0.96851  -0.98456
O     0.61817  -1.79954  -1.40210
C     1.01071   0.51119  -0.85995
N     0.05574   0.81781  -1.89216
N    -1.00383   1.32379  -1.66842
C    -1.09299   1.58123   0.28295
C    -2.36767   0.88327   0.49267
O    -3.46139   1.42240   0.30501
C    -2.30026  -0.55354   0.86900
C    -1.16249  -1.12056   1.30878
C     0.08662  -0.33951   1.44076
O     1.03327  -0.76996   2.08766
C     0.18436   0.95626   0.66849
H     3.25089   0.09392   0.94174
H     4.52862  -0.95967   0.28739
H     3.93734   0.40391  -0.68593
H     2.84057  -2.28619  -0.49318
H     1.87854   1.21969  -1.02440
H    -1.17291   2.68734   0.29536
H    -3.23782  -1.11661   0.79782
H    -1.11028  -2.16670   1.61963
H     0.92478   1.64884   1.14404
24

C     3.63745  -0.37791   0.02792
N     2.65904  -1.28222  -0.55895
C     1.42848  -0.96967  -0.99011
O     0.61767  -1.80203  -1.40174
C     1.02261   0.50665  -0.88317
N     0.05588   0.81872  -1.88124
N    -1.00222   1.31914  -1.68923
C    -1.09452   1.58554   0.30297
C    -2.36813   0.88332   0.49442
O    -3.46153   1.42190   0.30389
C    -2.30057  -0.55429   0.86832
C    -1.16261  -1.12088   1.30769
C     0.08509  -0.33755   1.44249
O     1.03377  -0.77016   2.08571
C     0.17258   0.96553   0.69057
H     3.25070   0.09415   0.94146
H     4.52863  -0.95948   0.28743
H     3.93720   0.40371  -0.68624
H     2.83945  -2.28649  -0.49035
H     1.87974   1.22073  -1.02664
H    -1.17334   2.68788   0.29475
H    -3.23780  -1.11691   0.79705
H    -1.10991  -2.16695   1.61869
H     0.92599   1.64935   1.14280
24

C     3.63707  -0.37805   0.02747
N     2.65941  -1.28350  -0.55872
C     1.43031  -0.97084  -0.99566
O     0.61716  -1.80453  -1.40139
C     1.03450   0.50211  -0.90639
N     0.05601   0.81963  -1.87032
N    -1.00062   1.31450  -1.71003
C    -1.09606   1.58984   0.32299
C    -2.36860   0.88336   0.49617
O    -3.46166   1.42141   0.30277
C    -2.30088  -0.55503   0.86764
C    -1.16273  -1.12121   1.30661
C     0.08357  -0.33559   1.44422
O     1.03427  -0.77035   2.08375
C     0.16080   0.97481   0.71264
H     3.25050   0.09438   0.94118
H     4.52863  -0.95929   0.28747
H     3.93707   0.40352  -0.68654
H     2.83832  -2.28679  -0.48753
H     1.88094   1.22177  -1.02888
H    -1.17376   2.68843   0.29413
H    -3.23778  -1.11721   0.79628
H    -1.10955  -2.16721   1.61774
H     0.92719   1.64986   1.14155
24

C     3.63670  -0.37820   0.02702
N     2.65978  -1.28478  -0.55849
C     1.43213  -0.97201  -1.00120
O     0.61666  -1.80703  -1.40103
C     1.04639   0.49757  -0.92961
N     0.05615   0.82054  -1.85939
N    -0.99901   1.30985  -1.73084
C    -1.09759   1.59415   0.34301
C    -2.36906   0.88341   0.49791
O    -3.46179   1.42092   0.30166
C    -2.30118  -0.55577   0.86695
C    -1.16285  -1.12153   1.30552
C     0.08205  -0.33363   1.44595
O     1.03478  -0.77055   2.08179
C     0.14902   0.98409   0.73471
H     3.25030   0.09461   0.94090
H     4.52864  -0.95909   0.28750
H     3.93693   0.40332  -0.68685
H     2.83719  -2.28709  -0.48470
H     1.88214   1.22280  -1.03112
H    -1.17418   2.68897   0.29352
H    -3.23777  -1.11751   0.79551
H    -1.10919  -2.16746   1.61680
H     0.92839   1.65037   1.14031
24

C     3.63632  -0.37834   0.02657
N     2.66015  -1.28606  -0.55826
C     1.43395  -0.97317  -1.00675
O     0.61615  -1.80953  -1.40068
C     1.05828   0.49303  -0.95283
N     0.05628   0.82146  -1.84847
N    -0.99741   1.30521  -1.75164
C    -1.09913   1.59845   0.36303
C    -2.36952   0.88345   0.49966
O    -3.46192   1.42042   0.30054
C    -2.30149  -0.55651   0.86627
C    -1.16297  -1.12186   1.30444
C     0.08052  -0.33167   1.44767
O     1.03528  -0.77075   2.07983
C     0.13725   0.99336   0.75678
H     3.25011   0.09484   0.94062
H     4.52864  -0.95890   0.28754
H     3.93679   0.40312  -0.68716
H     2.83607  -2.28739  -0.48187
H     1.88335   1.22384  -1.03336
H    -1.17460   2.68951   0.29290
H    -3.23775  -1.11780   0.79474
H    -1.10883  -2.16771   1.61585
H     0.92960   1.65089   1.13906
24

C     3.63594  -0.37848   0.02613
N     2.66052  -1.28734  -0.55803
C     1.43578  -0.97434  -1.01230
O     0.61565  -1.81202  -1.40032
C     1.07017   0.48849  -0.97605
N     0.05641   0.82237  -1.83754
N    -0.99581   1.30056  -1.77245
C    -1.10066   1.60276   0.38305
C    -2.36999   0.88350   0.50141
O    -3.46206   1.41993   0.29942
C    -2.30180  -0.55725   0.86558
C    -1.16309  -1.12219   1.30336
C     0.07900  -0.32972   1.44940
O     1.03579  -0.77095   2.07788
C     0.12547   1.00264   0.77885
H     3.24991   0.09508   0.94034
H     4.52865  -0.95871   0.28758
H     3.93665   0.40293  -0.68747
H     2.83494  -2.28769  -0.47905
H     1.88455   1.22488  -1.03560
H    -1.17502   2.69005   0.29228
H    -3.23773  -1.11810   0.79396
H    -1.10847  -2.16797   1.61491
H     0.93080   1.65140   1.13782
24

C     3.63556  -0.37863   0.02568
N     2.66089  -1.28862  -0.55780
C     1.43760  -0.97551  -1.01785
O     0.61514  -1.81452  -1.39997
C     1.08207   0.48395  -0.99927
N     0.05655   0.82328  -1.82662
N    -0.99420   1.29592  -1.79325
C    -1.10219   1.60707   0.40308
C    -2.37045   0.88354   0.50316
O    -3.46219   1.41943   0.29830
C    -2.30210  -0.55799   0.86490
C    -1.16321  -1.12251   1.30227
C     0.07748  -0.32776   1.45113
O     1.03629  -0.77115   2.07592
C     0.11369   1.01192   0.80092
H     3.24972   0.09531   0.94005
H     4.52865  -0.95852   0.28762
H     3.93651   0.40273  -0.68777
H     2.83381  -2.28800  -0.47622
H     1.88575   1.22592  -1.03783
H    -1.17545   2.69059   0.29167
H    -3.23771  -1.11840   0.79319
H    -1.10810  -2.16822   1.61396
H     0.93200   1.65191   1.13658
24

C     3.63519  -0.37877   0.02523
N     2.66126  -1.28990  -0.55756
C     1.43942  -0.97668  -1.02339
O     0.61464  -1.81702  -1.39961
C     1.09396   0.47941  -1.02250
N     0.05668   0.82419  -1.81569
N    -0.99260   1.29127  -1.81406
C    -1.10373   1.61137   0.42310
C    -2.37091   0.88359   0.50491
O    -3.46232   1.41894   0.29718
C    -2.30241  -0.55873   0.86422
C    -1.16333  -1.12284   1.30119
C     0.07595  -0.32580   1.45286
O     1.03679  -0.77135   2.07396
C     0.10191   1.02119   0.82300
H     3.24952   0.09554   0.93977
H     4.52865  -0.95833   0.28766
H     3.93638   0.40254  -0.68808
H     2.83268  -2.28830  -0.47339
H     1.88695   1.22696  -1.04007
H    -1.17587   2.69113   0.29105
H    -3.23769  -1.11870   0.79242
H    -1.10774  -2.16847   1.61302
H     0.93321   1.65242   1.13533
24

C     3.63481  -0.37892   0.02478
N     2.66164  -1.29118  -0.55733
C     1.44125  -0.97784  -1.02894
O     0.61414  -1.81952  -1.39926
C     1.10585   0.47487  -1.04572
N     0.05682   0.82511  -1.80477
N    -0.99099   1.28663  -1.83486
C    -1.10526   1.61568   0.44312
C    -2.37138   0.88363   0.50666
O    -3.46246   1.41845   0.29606
C    -2.30272  -0.55947   0.86353
C    -1.16345  -1.12316   1.30011
C     0.07443  -0.32384   1.45459
O     1.03730  -0.77154   2.07200
C     0.09013   1.03047   0.84507
H     3.24933   0.09577   0.93949
H     4.52866  -0.95813   0.28770
H     3.93624   0.40234  -0.68839
H     2.83156  -2.28860  -0.47057
H     1.88816   1.22800  -1.04231
H    -1.17629   2.69167   0.29044
H    -3.23767  -1.11900   0.79165
H    -1.10738  -2.16872   1.61207
H     0.93441   1.65293   1.13409
24

C     3.63443  -0.37906   0.02433
N     2.66201  -1.29246  -0.55710
C     1.44307  -0.97901  -1.03449
O     0.61363  -1.82201  -1.39890
C     1.11774   0.47033  -1.06894
N     0.05695   0.82602  -1.79385
N    -0.98939   1.28198  -1.85567
C    -1.10679   1.61998   0.46314
C    -2.37184   0.88368   0.50841
O    -3.46259   1.41795   0.29494
C    -2.30302  -0.56021   0.86285
C    -1.16357  -1.12349   1.29902
C     0.07291  -0.32188   1.45631
O     1.03780  -0.77174   2.07005
C     0.07835   1.03975   0.86714
H     3.24913   0.09600   0.93921
H     4.52866  -0.95794   0.28773
H     3.93610   0.40215  -0.68869
H     2.83043  -2.28890  -0.46774
H     1.88936   1.22904  -1.04455
H    -1.17671   2.69222   0.28982
H    -3.23765  -1.11930   0.79087
H    -1.10702  -2.16898   1.61113
H     0.93561   1.65344   1.13284
24

C     3.63405  -0.37920   0.02389
N     2.66238  -1.29374  -0.55687
C     1.44489  -0.98018  -1.04003
O     0.61313  -1.82451  -1.39855
C     1.12963   0.46579  -1.09216
N     0.05708   0.82693  -1.78292
N    -0.98779   1.27734  -1.87647
C    -1.10833   1.62429   0.48316
C    -2.37231   0.88372   0.51015
O    -3.46272   1.41746   0.29382
C    -2.30333  -0.56096   0.86217
C    -1.16369  -1.12382   1.29794
C     0.07139  -0.31992   1.45804
O     1.03830  -0.77194   2.06809
C     0.06657   1.04902   0.88921
H     3.24893   0.09623   0.93893
H     4.52867  -0.95775   0.28777
H     3.93596   0.40195  -0.68900
H     2.82930  -2.28920  -0.46492
H     1.89056   1.23008  -1.04679
H    -1.17713   2.69276   0.28921
H    -3.23764  -1.11960   0.79010
H    -1.10666  -2.16923   1.61018
H     0.93682   1.65396   1.13160
24

C     3.63368  -0.37935   0.02344
N     2.66275  -1.29502  -0.55664
C     1.44672  -0.98134  -1.04558
O     0.61262  -1.82701  -1.39819
C     1.14152   0.46125  -1.11538
N     0.05722   0.82784  -1.77200
N    -0.98618   1.27269  -1.89728
C    -1.10986   1.62860   0.50318
C    -2.37277   0.88377   0.51190
O    -3.46285   1.41697   0.29271
C    -2.30364  -0.56170   0.86148
C    -1.16381  -1.12414   1.29685
C     0.06986  -0.31796   1.45977
O     1.03881  -0.77214   2.06613
C     0.05479   1.05830   0.91128
H     3.24874   0.09646   0.93865
H     4.52867  -0.95756   0.28781
H     3.93582   0.40176  -0.68931
H     2.82818  -2.28950  -0.46209
H     1.89176   1.23112  -1.04903
H    -1.17755   2.69330   0.28859
H    -3.23762  -1.11990   0.78933
H    -1.10629  -2.16948   1.60924
H     0.93802   1.65447   1.13036
24

C     3.63330  -0.37949   0.02299
N     2.66312  -1.29630  -0.55641
C     1.44854  -0.98251  -1.05113
O     0.61212  -1.82951  -1.39784
C     1.15342   0.45671  -1.13860
N     0.05735   0.82876  -1.76107
N    -0.98458   1.26805  -1.91808
C    -1.11140   1.63290   0.52321
C    -2.37323   0.88381   0.51365
O    -3.46299   1.41647   0.29159
C    -2.30394  -0.56244   0.86080
C    -1.16393  -1.12447   1.29577
C     0.06834  -0.31600   1.46150
O     1.03931  -0.77234   2.06418
C     0.04302   1.06758   0.93336
H     3.24854   0.09669   0.93836
H     4.52868  -0.95736   0.28785
H     3.93569   0.40156  -0.68962
H     2.82705  -2.28980  -0.45926
H     1.89297   1.23215  -1.05127
H    -1.17798   2.69384   0.28798
H    -3.23760  -1.12020   0.78856
H    -1.10593  -2.16974   1.60829
H     0.93922   1.65498   1.12911
24

C     3.63292  -0.37964   0.02254
N     2.66349  -1.29758  -0.55618
C     1.45036  -0.98368  -1.05667
O     0.61162  -1.83200  -1.39748
C     1.16531   0.45217  -1.16182
N     0.05749   0.82967  -1.75015
N    -0.98297   1.26340  -1.93889
C    -1.11293   1.63721   0.54323
C    -2.37370   0.88386   0.51540
O    -3.46312   1.41598   0.29047
C    -2.30425  -0.56318   0.86011
C    -1.16405  -1.12479   1.29469
C     0.06682  -0.31404   1.46323
O     1.03982  -0.77253   2.06222
C     0.03124   1.07685   0.95543
H     3.24835   0.09692   0.93808
H     4.52868  -0.95717   0.28789
H     3.93555   0.40137  -0.68992
H     2.82592  -2.29011  -0.45644
H     1.89417   1.23319  -1.05351
H    -1.17840   2.69438   0.28736
H    -3.23758  -1.12050   0.78779
H    -1.10557  -2.16999   1.60735
H     0.94043   1.65549   1.12787
24

C     3.63254  -0.37978   0.02210
N     2.66387  -1.29886  -0.55595
C     1.45219  -0.98484  -1.06222
O     0.61111  -1.83450  -1.39713
C     1.17720   0.44763  -1.18504
N     0.05762   0.83058  -1.73922
N    -0.98137   1.25876  -1.95969
C    -1.11446   1.64151   0.56325
C    -2.37416   0.88390   0.51715
O    -3.46325   1.41549   0.28935
C    -2.30456  -0.56392   0.85943
C    -1.16417  -1.12512   1.29360
C     0.06529  -0.31208   1.46495
O     1.04032  -0.77273   2.06026
C     0.01946   1.08613   0.97750
H     3.24815   0.09715   0.93780
H     4.52869  -0.95698   0.28793
H     3.93541   0.40117  -0.69023
H     2.82479  -2.29041  -0.45361
H     1.89537   1.23423  -1.05575
H    -1.17882   2.69492   0.28675
H    -3.23756  -1.12079   0.78701
H    -1.10521  -2.17024   1.60640
H     0.94163   1.65600   1.12662
24

C     3.63217  -0.37993   0.02165
N     2.66424  -1.30014  -0.55572
C     1.45401  -0.98601  -1.06777
O     0.61061  -1.83700  -1.39677
C     1.18909   0.44309  -1.20826
N     0.05775   0.83149  -1.72830
N    -0.97976   1.25411  -1.98050
C    -1.11600   1.64582   0.58327
C    -2.37462   0.88395   0.51890
O    -3.46338   1.41499   0.28823
C    -2.30486  -0.56466   0.85875
C    -1.16429  -1.12544   1.29252
C     0.06377  -0.31012   1.46668
O     1.04082  -0.77293   2.05830
C     0.00768   1.09541   0.99957
H     3.24796   0.09738   0.93752
H     4.52869  -0.95679   0.28796
H     3.93527   0.40098  -0.69054
H     2.82367  -2.29071  -0.45078
H     1.89657   1.23527  -1.05798
H    -1.17924   2.69546   0.28613
H    -3.23754  -1.12109   0.78624
H    -1.10485  -2.17050   1.60546
H     0.94283   1.65651   1.12538
24

C     3.63179  -0.38007   0.02120
N     2.66461  -1.30142  -0.55549
C     1.45583  -0.98718  -1.07332
O     0.61010  -1.83950  -1.39642
C     1.20098   0.43856  -1.23148
N     0.05789   0.83241  -1.71738
N    -0.97816   1.24947  -2.00130
C    -1.11753   1.65012   0.60329
C    -2.37509   0.88399   0.52065
O    -3.46352   1.41450   0.28711
C    -2.30517  -0.56540   0.85806
C    -1.16441  -1.12577   1.29144
C     0.06225  -0.30816   1.46841
O     1.04133  -0.77313   2.05635
C    -0.00410   1.10468   1.02164
H     3.24776   0.09761   0.93724
H     4.52870  -0.95660   0.28800
H     3.93513   0.40078  -0.69085
H     2.82254  -2.29101  -0.44796
H     1.89777   1.23631  -1.06022
H    -1.17966   2.69601   0.28552
H    -3.23753  -1.12139   0.78547
H    -1.10449  -2.17075   1.60451
H     0.94404   1.65703   1.12414
24

C     3.63217  -0.37993   0.02165
N     2.66424  -1.30014  -0.55572
C     1.45401  -0.98601  -1.06777
O     0.61061  -1.83700  -1.39677
C     1.18909   0.44309  -1.20826
N     0.05775   0.83149  -1.72830
N    -0.97976   1.25411  -1.98050
C    -1.11600   1.64582   0.58327
C    -2.37462   0.88395   0.51890
O    -3.46338   1.41499   0.28823
C    -2.30486  -0.56466   0.85875
C    -1.16429  -1.12544   1.29252
C     0.06377  -0.31012   1.46668
O     1.04082  -0.77293   2.05830
C     0.00768   1.09541   0.99957
H     3.24796   0.09738   0.93752
H     4.52869  -0.95679   0.28796
H     3.93527   0.40098  -0.69054
H     2.82367  -2.29071  -0.45078
H     1.89657   1.23527  -1.05798
H    -1.17924   2.69546   0.28613
H    -3.23754  -1.12109   0.78624
H    -1.10485  -2.17050   1.60546
H     0.94283   1.65651   1.12538
24

C     3.63254  -0.37978   0.02210
N     2.66387  -1.29886  -0.55595
C     1.45219  -0.98484  -1.06222
O     0.61111  -1.83450  -1.39713
C     1.17720   0.44763  -1.18504
N     0.05762   0.83058  -1.73922
N    -0.98137   1.25876  -1.95969
C    -1.11446   1.64151   0.56325
C    -2.37416   0.88390   0.51715
O    -3.46325   1.41549   0.28935
C    -2.30456  -0.56392   0.85943
C    -1.16417  -1.12512   1.29360
C     0.06529  -0.31208   1.46495
O     1.04032  -0.77273   2.06026
C     0.01946   1.08613   0.97750
H     3.24815   0.09715   0.93780
H     4.52869  -0.95698   0.28793
H     3.93541   0.40117  -0.69023
H     2.82479  -2.29041  -0.45361
H     1.89537   1.23423  -1.05575
H    -1.17882   2.69492   0.28675
H    -3.23756  -1.12079   0.78701
H    -1.10521  -2.17024   1.60640
H     0.94163   1.65600   1.12662
24

C     3.63292  -0.37964   0.02254
N     2.66349  -1.29758  -0.55618
C     1.45036  -0.98368  -1.05667
O     0.61162  -1.83200  -1.39748
C     1.16531   0.45217  -1.16182
N     0.05749   0.82967  -1.75015
N    -0.98297   1.26340  -1.93889
C    -1.11293   1.63721   0.54323
C    -2.37370   0.88386   0.51540
O    -3.46312   1.41598   0.29047
C    -2.30425  -0.56318   0.86011
C    -1.16405  -1.12479   1.29469
C     0.06682  -0.31404   1.46323
O     1.03982  -0.77253   2.06222
C     0.03124   1.07685   0.95543
H     3.24835   0.09692   0.93808
H     4.52868  -0.95717   0.28789
H     3.93555   0.40137  -0.68992
H     2.82592  -2.29011  -0.45644
H     1.89417   1.23319  -1.05351
H    -1.17840   2.69438   0.28736
H    -3.23758  -1.12050   0.78779
H    -1.10557  -2.16999   1.60735
H     0.94043   1.65549   1.12787
24

C     3.63330  -0.37949   0.02299
N     2.66312  -1.29630  -0.55641
C     1.44854  -0.98251  -1.05113
O     0.61212  -1.82951  -1.39784
C     1.15342   0.45671  -1.13860
N     0.05735   0.82876  -1.76107
N    -0.98458   1.26805  -1.91808
C    -1.11140   1.63290   0.52321
C    -2.37323   0.88381   0.51365
O    -3.46299   1.41647   0.29159
C    -2.30394  -0.56244   0.86080
C    -1.16393  -1.12447   1.29577
C     0.06834  -0.31600   1.46150
O     1.03931  -0.77234   2.06418
C     0.04302   1.06758   0.93336
H     3.24854   0.09669   0.93836
H     4.52868  -0.95736   0.28785
H     3.93569   0.40156  -0.68962
H     2.82705  -2.28980  -0.45926
H     1.89297   1.23215  -1.05127
H    -1.17798   2.69384   0.28798
H    -3.23760  -1.12020   0.78856
H    -1.10593  -2.16974   1.60829
H     0.93922   1.65498   1.12911
24

C     3.63368  -0.37935   0.02344
N     2.66275  -1.29502  -0.55664
C     1.44672  -0.98134  -1.04558
O     0.61262  -1.82701  -1.39819
C     1.14152   0.46125  -1.11538
N     0.05722   0.82784  -1.77200
N    -0.98618   1.27269  -1.89728
C    -1.10986   1.62860   0.50318
C    -2.37277   0.88377   0.51190
O    -3.46285   1.41697   0.29271
C    -2.30364  -0.56170   0.86148
C    -1.16381  -1.12414   1.29685
C     0.06986  -0.31796   1.45977
O     1.03881  -0.77214   2.06613
C     0.05479   1.05830   0.91128
H     3.24874   0.09646   0.93865
H     4.52867  -0.95756   0.28781
H     3.93582   0.40176  -0.68931
H     2.82818  -2.28950  -0.46209
H     1.89176   1.23112  -1.04903
H    -1.17755   2.69330   0.28859
H    -3.23762  -1.11990   0.78933
H    -1.10629  -2.16948   1.60924
H     0.93802   1.65447   1.13036
24

C     3.63405  -0.37920   0.02389
N     2.66238  -1.29374  -0.55687
C     1.44489  -0.98018  -1.04003
O     0.61313  -1.82451  -1.39855
C     1.12963   0.46579  -1.09216
N     0.05708   0.82693  -1.78292
N    -0.98779   1.27734  -1.87647
C    -1.10833   1.62429   0.48316
C    -2.37231   0.88372   0.51015
O    -3.46272   1.41746   0.29382
C    -2.30333  -0.56096   0.86217
C    -1.16369  -1.12382   1.29794
C     0.07139  -0.31992   1.45804
O     1.03830  -0.77194   2.06809
C     0.06657   1.04902   0.88921
H     3.24893   0.09623   0.93893
H     4.52867  -0.95775   0.28777
H     3.93596   0.40195  -0.68900
H     2.82930  -2.28920  -0.46492
H     1.89056   1.23008  -1.04679
H    -1.17713   2.69276   0.28921
H    -3.23764  -1.11960   0.79010
H    -1.10666  -2.16923   1.61018
H     0.93682   1.65396   1.13160
24

C     3.63443  -0.37906   0.02433
N     2.66201  -1.29246  -0.55710
C     1.44307  -0.97901  -1.03449
O     0.61363  -1.82201  -1.39890
C     1.11774   0.47033  -1.06894
N     0.05695   0.82602  -1.79385
N    -0.98939   1.28198  -1.85567
C    -1.10679   1.61998   0.46314
C    -2.37184   0.88368   0.50841
O    -3.46259   1.41795   0.29494
C    -2.30302  -0.56021   0.86285
C    -1.16357  -1.12349   1.29902
C     0.07291  -0.32188   1.45631
O     1.03780  -0.77174   2.07005
C     0.07835   1.03975   0.86714
H     3.24913   0.09600   0.93921
H     4.52866  -0.95794   0.28773
H     3.93610   0.40215  -0.68869
H     2.83043  -2.28890  -0.46774
H     1.88936   1.22904  -1.04455
H    -1.17671   2.69222   0.28982
H    -3.23765  -1.11930   0.79087
H    -1.10702  -2.16898   1.61113
H     0.93561   1.65344   1.13284
24

C     3.63481  -0.37892   0.02478
N     2.66164  -1.29118  -0.55733
C     1.44125  -0.97784  -1.02894
O     0.61414  -1.81952  -1.39926
C     1.10585   0.47487  -1.04572
N     0.05682   0.82511  -1.80477
N    -0.99099   1.28663  -1.83486
C    -1.10526   1.61568   0.44312
C    -2.37138   0.88363   0.50666
O    -3.46246   1.41845   0.29606
C    -2.30272  -0.55947   0.86353
C    -1.16345  -1.12316   1.30011
C     0.07443  -0.32384   1.45459
O     1.03730  -0.77154   2.07200
C     0.09013   1.03047   0.84507
H     3.24933   0.09577   0.93949
H     4.52866  -0.95813   0.28770
H     3.93624   0.40234  -0.68839
H     2.83156  -2.28860  -0.47057
H     1.88816   1.22800  -1.04231
H    -1.17629   2.69167   0.29044
H    -3.23767  -1.11900   0.79165
H    -1.10738  -2.16872   1.61207
H     0.93441   1.65293   1.13409
24

C     3.63519  -0.37877   0.02523
N     2.66126  -1.28990  -0.55756
C     1.43942  -0.97668  -1.02339
O     0.61464  -1.81702  -1.39961
C     1.09396   0.47941  -1.02250
N     0.05668   0.82419  -1.81569
N    -0.99260   1.29127  -1.81406
C    -1.10373   1.61137   0.42310
C    -2.37091   0.88359   0.50491
O    -3.46232   1.41894   0.29718
C    -2.30241  -0.55873   0.86422
C    -1.16333  -1.12284   1.30119
C     0.07595  -0.32580   1.45286
O     1.03679  -0.77135   2.07396
C     0.10191   1.02119   0.82300
H     3.24952   0.09554   0.93977
H     4.52865  -0.95833   0.28766
H     3.93638   0.40254  -0.68808
H     2.83268  -2.28830  -0.47339
H     1.88695   1.22696  -1.04007
H    -1.17587   2.69113   0.29105
H    -3.23769  -1.11870   0.79242
H    -1.10774  -2.16847   1.61302
H     0.93321   1.65242   1.13533
24

C     3.63556  -0.37863   0.02568
N     2.66089  -1.28862  -0.55780
C     1.43760  -0.97551  -1.01785
O     0.61514  -1.81452  -1.39997
C     1.08207   0.48395  -0.99927
N     0.05655   0.82328  -1.82662
N    -0.99420   1.29592  -1.79325
C    -1.10219   1.60707   0.40308
C    -2.37045   0.88354   0.50316
O    -3.46219   1.41943   0.29830
C    -2.30210  -0.55799   0.86490
C    -1.16321  -1.12251   1.30227
C     0.07748  -0.32776   1.45113
O     1.03629  -0.77115   2.07592
C     0.11369   1.01192   0.80092
H     3.24972   0.09531   0.94005
H     4.52865  -0.95852   0.28762
H     3.93651   0.40273  -0.68777
H     2.83381  -2.28800  -0.47622
H     1.88575   1.22592  -1.03783
H    -1.17545   2.69059   0.29167
H    -3.23771  -1.11840   0.79319
H    -1.10810  -2.16822   1.61396
H     0.93200   1.65191   1.13658
24

C     3.63594  -0.37848   0.02613
N     2.66052  -1.28734  -0.55803
C     1.43578  -0.97434  -1.01230
O     0.61565  -1.81202  -1.40032
C     1.07017   0.48849  -0.97605
N     0.05641   0.82237  -1.83754
N    -0.99581   1.30056  -1.77245
C    -1.10066   1.60276   0.38305
C    -2.36999   0.88350   0.50141
O    -3.46206   1.41993   0.29942
C    -2.30180  -0.55725   0.86558
C    -1.16309  -1.12219   1.30336
C     0.07900  -0.32972   1.44940
O     1.03579  -0.77095   2.07788
C     0.12547   1.00264   0.77885
H     3.24991   0.09508   0.94034
H     4.52865  -0.95871   0.28758
H     3.93665   0.40293  -0.68747
H     2.83494  -2.28769  -0.47905
H     1.88455   1.22488  -1.03560
H    -1.17502   2.69005   0.29228
H    -3.23773  -1.11810   0.79396
H    -1.10847  -2.16797   1.61491
H     0.93080   1.65140   1.13782
24

C     3.63632  -0.37834   0.02657
N     2.66015  -1.28606  -0.55826
C     1.43395  -0.97317  -1.00675
O     0.61615  -1.80953  -1.40068
C     1.05828   0.49303  -0.95283
N     0.05628   0.82146  -1.84847
N    -0.99741   1.30521  -1.75164
C    -1.09913   1.59845   0.36303
C    -2.36952   0.88345   0.49966
O    -3.46192   1.42042   0.30054
C    -2.30149  -0.55651   0.86627
C    -1.16297  -1.12186   1.30444
C     0.08052  -0.33167   1.44767
O     1.03528  -0.77075   2.07983
C     0.13725   0.99336   0.75678
H     3.25011   0.09484   0.94062
H     4.52864  -0.95890   0.28754
H     3.93679   0.40312  -0.68716
H     2.83607  -2.28739  -0.48187
H     1.88335   1.22384  -1.03336
H    -1.17460   2.68951   0.29290
H    -3.23775  -1.11780   0.79474
H    -1.10883  -2.16771   1.61585
H     0.92960   1.65089   1.13906
24

C     3.63670  -0.37820   0.02702
N     2.65978  -1.28478  -0.55849
C     1.43213  -0.97201  -1.00120
O     0.61666  -1.80703  -1.40103
C     1.04639   0.49757  -0.92961
N     0.05615   0.82054  -1.85939
N    -0.99901   1.30985  -1.73084
C    -1.09759   1.59415   0.34301
C    -2.36906   0.88341   0.49791
O    -3.46179   1.42092   0.30166
C    -2.30118  -0.55577   0.86695
C    -1.16285  -1.12153   1.30552
C     0.08205  -0.33363   1.44595
O     1.03478  -0.77055   2.08179
C     0.14902   0.98409   0.73471
H     3.25030   0.09461   0.94090
H     4.52864  -0.95909   0.28750
H     3.93693   0.40332  -0.68685
H     2.83719  -2.28709  -0.48470
H     1.88214   1.22280  -1.03112
H    -1.17418   2.68897   0.29352
H    -3.23777  -1.11751   0.79551
H    -1.10919  -2.16746   1.61680
H     0.92839   1.65037   1.14031
24

C     3.63707  -0.37805   0.02747
N     2.65941  -1.28350  -0.55872
C     1.43031  -0.97084  -0.99566
O     0.61716  -1.80453  -1.40139
C     1.03450   0.50211  -0.90639
N     0.05601   0.81963  -1.87032
N    -1.00062   1.31450  -1.71003
C    -1.09606   1.58984   0.32299
C    -2.36860   0.88336   0.49617
O    -3.46166   1.42141   0.30277
C    -2.30088  -0.55503   0.86764
C    -1.16273  -1.12121   1.30661
C     0.08357  -0.33559   1.44422
O     1.03427  -0.77035   2.08375
C     0.16080   0.97481   0.71264
H     3.25050   0.09438   0.94118
H     4.52863  -0.95929   0.28747
H     3.93707   0.40352  -0.68654
H     2.83832  -2.28679  -0.48753
H     1.88094   1.22177  -1.02888
H    -1.17376   2.68843   0.29413
H    -3.23778  -1.11721   0.79628
H    -1.10955  -2.16721   1.61774
H     0.92719   1.64986   1.14155
24

C     3.63745  -0.37791   0.02792
N     2.65904  -1.28222  -0.55895
C     1.42848  -0.96967  -0.99011
O     0.61767  -1.80203  -1.40174
C     1.02261   0.50665  -0.88317
N     0.05588   0.81872  -1.88124
N    -1.00222   1.31914  -1.68923
C    -1.09452   1.58554   0.30297
C    -2.36813   0.88332   0.49442
O    -3.46153   1.42190   0.30389
C    -2.30057  -0.55429   0.86832
C    -1.16261  -1.12088   1.30769
C     0.08509  -0.33755   1.44249
O     1.03377  -0.77016   2.08571
C     0.17258   0.96553   0.69057
H     3.25070   0.09415   0.94146
H     4.52863  -0.95948   0.28743
H     3.93720   0.40371  -0.68624
H     2.83945  -2.28649  -0.49035
H     1.87974   1.22073  -1.02664
H    -1.17334   2.68788   0.29475
H    -3.23780  -1.11691   0.79705
H    -1.10991  -2.16695   1.61869
H     0.92599   1.64935   1.14280
24

C     3.63783  -0.37776   0.02837
N     2.65866  -1.28094  -0.55918
C     1.42666  -0.96851  -0.98456
O     0.61817  -1.79954  -1.40210
C     1.01071   0.51119  -0.85995
N     0.05574   0.81781  -1.89216
N    -1.00383   1.32379  -1.66842
C    -1.09299   1.58123   0.28295
C    -2.36767   0.88327   0.49267
O    -3.46139   1.42240   0.30501
C    -2.30026  -0.55354   0.86900
C    -1.16249  -1.12056   1.30878
C     0.08662  -0.33951   1.44076
O     1.03327  -0.76996   2.08766
C     0.18436   0.95626   0.66849
H     3.25089   0.09392   0.94174
H     4.52862  -0.95967   0.28739
H     3.93734   0.40391  -0.68593
H     2.84057  -2.28619  -0.49318
H     1.87854   1.21969  -1.02440
H    -1.17291   2.68734   0.29536
H    -3.23782  -1.11661   0.79782
H    -1.11028  -2.16670   1.61963
H     0.92478   1.64884   1.14404
24

C     3.63821  -0.37762   0.02881
N     2.65829  -1.27966  -0.55941
C     1.42484  -0.96734  -0.97902
O     0.61867  -1.79704  -1.40245
C     0.99882   0.51573  -0.83673
N     0.05561   0.81689  -1.90309
N    -1.00543   1.32843  -1.64762
C    -1.09146   1.57692   0.26292
C    -2.36721   0.88323   0.49092
O    -3.46126   1.42289   0.30613
C    -2.29996  -0.55280   0.86969
C    -1.16237  -1.12023   1.30986
C     0.08814  -0.34147   1.43903
O     1.03276  -0.76976   2.08962
C     0.19614   0.94698   0.64642
H     3.25109   0.09369   0.94203
H     4.52862  -0.95986   0.28735
H     3.93748   0.40410  -0.68562
H     2.84170  -2.28588  -0.49600
H     1.87734   1.21865  -1.02216
H    -1.17249   2.68680   0.29598
H    -3.23784  -1.11631   0.79860
H    -1.11064  -2.16645   1.62058
H     0.92358   1.64833   1.14528
24

C     3.63858  -0.37747   0.02926
N     2.65792  -1.27838  -0.55964
C     1.42301  -0.96617  -0.97347
O     0.61918  -1.79454  -1.40281
C     0.98693   0.52027  -0.81351
N     0.05548   0.81598  -1.91401
N    -1.00704   1.33308  -1.62681
C    -1.08992   1.57262   0.24290
C    -2.36674   0.88318   0.48917
O    -3.46113   1.42338   0.30725
C    -2.29965  -0.55206   0.87037
C    -1.16225  -1.11991   1.31094
C     0.08966  -0.34343   1.43730
O     1.03226  -0.76956   2.09158
C     0.20792   0.93770   0.62435
H     3.25128   0.09346   0.94231
H     4.52861  -0.96005   0.28731
H     3.93762   0.40430  -0.68531
H     2.84283  -2.28558  -0.49883
H     1.87613   1.21761  -1.01992
H    -1.17207   2.68626   0.29659
H    -3.23786  -1.11601   0.79937
H    -1.11100  -2.16619   1.62152
H     0.92238   1.64782   1.14653
24

C     3.63896  -0.37733   0.02971
N     2.65755  -1.27710  -0.55987
C     1.42119  -0.96501  -0.96792
O     0.61968  -1.79204  -1.40316
C     0.97504   0.52481  -0.79029
N     0.05534   0.81507  -1.92494
N    -1.00864   1.33772  -1.60601
C    -1.08839   1.56831   0.22288
C    -2.36628   0.88314   0.48742
O    -3.46100   1.42388   0.30837
C    -2.29934  -0.55132   0.87105
C    -1.16213  -1.11958   1.31203
C     0.09118  -0.34539   1.43558
O     1.03176  -0.76936   2.09354
C     0.21970   0.92843   0.60228
H     3.25148   0.09323   0.94259
H     4.52861  -0.96025   0.28727
H     3.93776   0.40449  -0.68501
H     2.84396  -2.28528  -0.50166
H     1.87493   1.21657  -1.01768
H    -1.17165   2.68572   0.29721
H    -3.23788  -1.11571   0.80014
H    -1.11136  -2.16594   1.62247
H     0.92117   1.64730   1.14777
