14

C -2.354347153 -0.747796980 1.100114570
C -1.001256572 1.696139330 0.408770022
C 1.952445700 1.355136115 0.358583790
C 3.074704969 -0.512541478 1.869902652
C -1.168174209 -1.973409150 -1.287695343
C 0.113632766 0.544132087 -1.834418433
H -4.398701592 -0.547435479 0.950179939
H -1.847707989 -1.585346785 2.906247961
H -1.616035295 3.616028998 0.745484522
H 2.837209878 3.151420121 -0.124790899
H 0.076576786 -3.576838460 -0.971573717
H 4.958546071 0.170327441 2.453522531
H -2.576012953 -2.428875703 -2.720065623
H 0.571002783 1.355890608 -3.653495578

