13

C 4.003409040 0.599686369 0.106084670
O 1.841087276 -0.855822474 0.623263499
C -0.412880592 0.466520695 0.180128524
C -2.530012522 -1.379637737 0.696187728
C -5.270433122 0.254919028 -0.223846488
N -5.468407861 -0.044916371 1.986524756
H 4.069075039 1.171013598 -1.885853754
H 4.065088661 2.303148255 1.286197678
H 5.643078667 -0.569617330 0.525249206
H -0.585233724 2.101140142 1.446520191
H -0.510839232 1.156891562 -1.772738415
H -2.306725563 -2.223265696 2.557177354
H -2.698800308 -2.882979158 -0.688938398

