12

C 0.553211540 1.762282503 -2.351999093
H 1.558701533 2.510956373 -0.724971148
H 0.846709913 2.787410114 -4.098375129
C 0.033707971 -0.957416003 -2.519863767
H 0.157252728 -1.985554495 -4.286250094
C -0.182860766 -2.133828549 0.088425860
H 1.529799703 -2.144085453 1.236805132
H -0.983059435 -4.028720996 0.058330233
C -2.196187489 -0.090144415 0.611849081
H -1.753828549 1.329661719 2.044256078
H -4.072761498 -0.849219809 0.978598434
N -2.050859537 0.904065973 -2.027947099

