15

C -3.101292112 1.043589990 0.943836412
C -0.927055984 -0.268987906 -0.360182650
C 0.611090072 -2.289492093 1.063727459
N 2.926974930 -1.217501712 -0.051987707
C 1.613922940 1.135488845 -0.634786916
O 2.270464459 2.257158992 -2.921525281
H -3.778230862 2.634563925 -0.182788295
H -4.687657951 -0.243075112 1.239299967
H -2.528034735 1.771419405 2.789665862
H 2.478312355 0.910362559 -4.124101747
H -1.499637312 -0.982824712 -2.211749383
H 0.272842626 -4.270659305 0.600766045
H 0.471805181 -2.045299075 3.116571303
H 4.470106575 -1.096483688 1.066187013
H 1.833836454 2.622316440 0.793664034

