14

O -2.377134756 -0.477476382 3.760241104
C -2.029263275 -0.047398016 1.162051043
C -0.440860576 2.262991594 0.560954013
O 2.168823140 1.687786382 0.992169370
C 2.990807970 -0.380182982 -0.109419451
N 2.314012839 -1.251478156 -2.366555502
C 0.197209645 -2.088569910 -3.090143559
H -0.840532776 -1.154089759 4.433237130
H -3.924133026 0.240651746 0.375789520
H -0.742971829 2.796656488 -1.415593764
H -0.780973522 3.916180246 1.761484453
H 4.859065559 -0.920413389 0.549844124
H -0.195380088 -2.210177377 -5.104579230
H -1.217884003 -2.382330406 -1.505465454

