12

C 2.056611694 -0.588301279 -1.113760037
C 0.673391149 2.015154655 -1.043585397
C -2.016944471 1.057547242 -0.716901677
O -2.179284531 -1.603351869 -1.210506229
C -0.019092451 -1.847822147 0.431667928
C -0.720628652 0.675392917 1.765690095
H 3.891498646 -0.500259600 -0.186181411
H 2.254404886 -1.348956465 -3.018225836
H 1.025263671 2.302506107 1.437527551
H -3.667702709 2.181099632 -1.145932530
H 0.145655006 -3.699135979 1.309511891
H -1.428201866 1.201626519 3.614253506

