14

C -2.569933799 -0.609311670 0.469055384
C -0.578475516 0.869671351 -0.863334306
C 1.115965423 2.657673065 0.640801027
O 2.786253130 0.920795662 1.823980342
C 2.281503313 -1.105797411 0.158602635
N 1.348100741 -3.321625693 0.969435644
C -0.750718610 -2.599928137 -0.387563326
H -2.665359035 -0.363280875 2.502302315
H -4.404473590 -0.665301534 -0.443501544
H -0.925538780 1.311808796 -2.830542055
H 0.102959989 3.765345009 2.058580373
H 2.137194888 3.936155596 -0.628586366
H 3.464139200 -1.007816454 -1.538404457
H -1.285244954 -3.579268685 -2.143850711

