11

C 1.539600295 0.526816942 -2.631449165
C 0.563921355 -1.943761993 -1.621056051
C 0.783922553 -2.580202590 1.130840289
C 1.776983307 -1.203833474 2.970008681
H 1.798365671 -1.932190293 4.883632981
H 2.581396953 0.643880997 2.641729616
H 0.009765405 -4.424966479 1.602496787
H 1.481879140 -3.418031904 -2.758926802
H -1.423834331 -2.048819880 -2.211666821
O 2.550842954 2.185948405 -1.465458364
H 1.240515930 0.735490554 -4.701321748

