18

C 3.459720132 1.782192941 -0.574632342
C 2.064012957 -0.402108227 0.680679161
C -0.389920306 -1.119497567 -0.680932347
C -1.649426132 -3.449404117 0.583543705
C -2.591797892 0.612594200 -0.737247999
C -2.862507169 2.268317825 1.476670487
H 3.868001244 1.357112523 -2.553206813
H 2.354253423 3.524578235 -0.532655421
H 5.252922391 2.164455983 0.369503629
H 1.692922374 0.038447347 2.665446548
H 3.287022143 -2.070867410 0.696697632
H 0.069383279 -1.684682487 -2.618709369
H -2.049942869 -3.088262771 2.575074875
H -0.340873277 -5.036770963 0.465204519
H -3.404895398 -3.980930011 -0.354358495
H -4.831763155 2.707987722 1.896992159
H -2.087408409 4.040482500 0.690052694
H -1.805463407 1.845308962 3.210334298

