17

C 5.155927435 0.377903405 1.142109841
O 2.616788840 0.728627239 0.282144879
C 1.940646874 -0.520296253 -1.721122416
C -2.308049487 -2.212016799 -0.900499549
C -3.224819635 -0.266238903 1.065318911
C -2.320095243 1.887956906 -0.675054826
C -0.793658195 -0.052345395 -2.243661548
H 6.051870610 2.229206881 1.230128370
H 6.144541248 -0.865559591 -0.165875057
H 5.079006209 -0.447883875 3.026787316
H -1.199978508 -3.807684285 -0.211099416
H -3.818445179 -2.931360437 -2.100167141
H -5.229092907 -0.310357375 1.537154574
H -2.136864791 -0.357010480 2.812717383
H -3.859030827 2.697465047 -1.780914976
H -1.253320525 3.413987550 0.202165452
H -1.038508667 0.001005297 -4.288456708

