17

C 4.323473806 0.241501764 0.825292172
O 1.984742348 -0.775660028 1.575417219
C 0.643876310 -1.787837686 -0.440273911
C -2.146696544 -1.906545405 -0.354817774
C -3.224727170 0.404151739 0.990242567
C -1.855297752 2.145130131 -0.925146397
C -0.786662051 -0.175692335 -2.263035870
H 5.198794493 1.065334728 2.496059643
H 4.076514286 1.711545795 -0.614316477
H 5.576792290 -1.223782727 0.061579598
H 1.544809249 -3.430163134 -1.296154399
H -3.149210577 -3.658572837 -0.682081999
H -5.272132610 0.525212546 0.818700921
H -2.694998538 0.606863378 2.970510932
H -3.173376301 3.197454246 -2.104230468
H -0.464397077 3.456381723 -0.150241334
H -0.581504199 -0.395321899 -4.286231008

