16

C -1.154053042 -2.340981895 -0.817684286
C -1.915103691 -1.123997874 1.593273921
C -2.204028378 1.583662944 0.771043370
C 0.108787583 2.303648749 -0.692635307
C 2.638025129 1.492697727 -0.371215608
C 3.587837913 -0.824692676 -0.879327946
H -2.329285681 -1.946236287 -2.452514117
H -0.349107910 -4.225759904 -0.795210662
H -0.430089099 -1.321664077 3.013240361
H -3.658915105 -1.895545593 2.412766676
H -2.596323749 2.952611975 2.284479934
H -3.840483997 1.670564873 -0.503204908
H -0.021162816 4.236733959 -1.413836338
H 3.999569419 2.936296722 0.215946488
H 5.427613719 -1.408000769 -0.177525861
H 2.675987686 -2.009001877 -2.261423556

