15

O -3.877492620 -0.554037577 2.179865546
C -2.963046098 0.523271324 -0.058981811
C -0.445262598 -0.649346141 -0.921870160
C 0.438528446 0.404557954 -3.466651723
C 1.457500954 -0.485764154 1.044834317
C 2.980861964 -0.335761492 2.802047801
C 4.408409436 -0.144123119 4.888385245
H -2.639399092 -0.297412089 3.486173406
H -2.723776327 2.577519802 0.119900364
H -4.392183681 0.180117337 -1.506152275
H -0.772005978 -2.692754904 -1.112171590
H -1.015637992 0.116659370 -4.900101774
H 0.812715195 2.427818552 -3.327272478
H 2.166175425 -0.525123917 -4.088850815
H 6.436094582 -0.305085247 4.490289531

