15

O -3.428578523 -1.032020217 2.653095770
C -2.649228370 0.429593254 0.567241736
C -1.005370732 -1.072793401 -1.235239342
C 0.580607637 0.476649362 -3.068383949
C 1.632718458 -1.727297078 -0.553032054
C 2.736920412 -0.285017489 1.428687223
C 3.741401669 0.684833762 3.229873197
H -1.966485250 -1.388573496 3.667673210
H -1.636988843 2.130072340 1.184707159
H -4.376036179 1.029540745 -0.389727006
H -2.037359107 -2.604020358 -2.136522259
H 0.345178035 -0.030609160 -5.042845808
H 0.664876213 2.483043568 -2.659194068
H 2.624271286 -0.425644256 -2.761182719
H 4.668331759 1.506308895 4.814253954

