9

C 0.317859021 -2.697785884 -1.228598183
N -1.546640999 -1.291169944 -0.522034877
C -2.855284674 0.106270109 1.080471812
H -3.190990154 -0.292216099 3.050756905
C -4.098935905 -0.657278399 -1.307247829
H -5.336969378 -2.302445768 -1.454402730
H -4.296933358 0.715893017 -2.823017336
H 1.850347709 -3.042194442 0.075406441
H 0.333660608 -3.414953181 -3.136456873

