13

C -3.694609555 1.771338090 0.566521845
C -1.884925823 -0.457082325 0.734126701
O -2.552630767 -2.233127288 -1.124391750
C 0.781529422 0.435630381 0.882114650
O 2.149908361 -1.038457210 -0.641516458
C 4.610273685 -0.653853403 -0.725000439
C 6.841584360 -0.440589003 -0.918655906
H -5.629610532 1.093332627 0.747870868
H -3.497059136 2.701589809 -1.261554875
H -3.299137896 3.133288066 2.057216217
H -2.068862202 -1.281792878 2.658069662
H -1.157014035 -3.354160050 -1.420722689
H 8.832734883 -0.212090388 -1.064648228

