14

C -1.949250381 1.278407112 1.067917095
C -0.760914532 0.505628898 -1.467439950
C 1.875088665 1.461135956 -0.704794164
C 1.697367576 -0.009074862 1.819631723
C 1.033376039 -2.615132892 0.841530589
C -0.388911665 -2.333310023 -1.213006185
H -3.535524530 0.162898228 1.761630831
H -2.227218700 3.306143243 1.323968088
H -1.711945661 1.160625283 -3.183442456
H 1.987967808 3.506705867 -0.461241518
H 3.429028939 0.798014996 -1.881031419
H -0.155004710 0.956711418 2.886357195
H 1.624365037 -4.350462799 1.743184421
H -1.252725885 -3.756248415 -2.403098043

