26

C     2.49678  -1.81850  -1.27007
N     1.74036  -0.59565  -1.08653
C     1.48958  -0.11438   0.15106
O     2.01459  -0.57923   1.17240
C     0.58065   1.04730   0.25962
C     0.37493   1.65732   1.51335
N     0.22227   2.16168   2.55570
N    -0.24413   1.33685  -0.72462
C    -1.04088   1.45188  -1.63585
C    -2.20619  -0.97002  -0.76227
C    -1.55702  -1.64285  -1.95031
C    -1.75601  -0.95246   0.46204
C    -2.40189  -0.23893   1.62634
H     3.45801  -1.75662  -0.73717
H     2.69899  -1.94807  -2.34107
H     1.95374  -2.69854  -0.89902
H     1.17688  -0.27140  -1.86489
H    -1.51617   1.61479  -2.49229
H    -3.05091  -0.25975  -1.02225
H    -1.46464  -1.05588  -2.89191
H    -2.22743  -2.47712  -2.16665
H    -0.56665  -2.03306  -1.69852
H    -0.83385  -1.52316   0.69737
H    -3.09609   0.53981   1.28169
H    -1.69023   0.22297   2.33489
H    -2.96859  -0.98753   2.18883
26

C     2.49704  -1.81783  -1.27017
N     1.74050  -0.59500  -1.08639
C     1.48741  -0.11566   0.15170
O     2.01473  -0.57947   1.17259
C     0.57004   1.03823   0.26145
C     0.37289   1.65429   1.51311
N     0.22206   2.16102   2.55463
N    -0.24153   1.34414  -0.73052
C    -1.05100   1.42338  -1.62334
C    -2.19347  -0.94640  -0.77029
C    -1.55695  -1.64027  -1.95031
C    -1.74697  -0.94246   0.46190
C    -2.40028  -0.23851   1.62534
H     3.45808  -1.75650  -0.73718
H     2.69909  -1.94785  -2.34110
H     1.95380  -2.69837  -0.89910
H     1.17651  -0.27145  -1.86464
H    -1.51885   1.60790  -2.48861
H    -3.05100  -0.25949  -1.02176
H    -1.46614  -1.05894  -2.89406
H    -2.22864  -2.47630  -2.16126
H    -0.56642  -2.03200  -1.69895
H    -0.83415  -1.52383   0.69690
H    -3.09532   0.54033   1.28183
H    -1.69106   0.22157   2.33682
H    -2.96862  -0.98900   2.18585
26

C     2.49731  -1.81716  -1.27027
N     1.74063  -0.59434  -1.08624
C     1.48525  -0.11695   0.15234
O     2.01487  -0.57970   1.17278
C     0.55942   1.02916   0.26328
C     0.37086   1.65125   1.51288
N     0.22185   2.16036   2.55356
N    -0.23892   1.35143  -0.73643
C    -1.06111   1.39489  -1.61084
C    -2.18075  -0.92277  -0.77831
C    -1.55688  -1.63769  -1.95030
C    -1.73792  -0.93246   0.46177
C    -2.39866  -0.23809   1.62435
H     3.45815  -1.75638  -0.73719
H     2.69919  -1.94763  -2.34113
H     1.95386  -2.69820  -0.89918
H     1.17614  -0.27149  -1.86439
H    -1.52153   1.60101  -2.48492
H    -3.05110  -0.25922  -1.02126
H    -1.46765  -1.06199  -2.89620
H    -2.22986  -2.47548  -2.15588
H    -0.56619  -2.03093  -1.69937
H    -0.83446  -1.52449   0.69643
H    -3.09455   0.54086   1.28196
H    -1.69189   0.22017   2.33875
H    -2.96865  -0.99047   2.18286
26

C     2.49757  -1.81649  -1.27037
N     1.74076  -0.59369  -1.08610
C     1.48308  -0.11823   0.15297
O     2.01501  -0.57994   1.17298
C     0.54881   1.02009   0.26511
C     0.36882   1.64821   1.51264
N     0.22164   2.15970   2.55249
N    -0.23631   1.35872  -0.74234
C    -1.07123   1.36639  -1.59834
C    -2.16802  -0.89915  -0.78633
C    -1.55682  -1.63511  -1.95030
C    -1.72887  -0.92246   0.46163
C    -2.39705  -0.23766   1.62335
H     3.45822  -1.75626  -0.73720
H     2.69930  -1.94741  -2.34116
H     1.95392  -2.69803  -0.89925
H     1.17577  -0.27154  -1.86413
H    -1.52421   1.59412  -2.48124
H    -3.05119  -0.25895  -1.02076
H    -1.46915  -1.06505  -2.89835
H    -2.23108  -2.47465  -2.15049
H    -0.56596  -2.02987  -1.69980
H    -0.83476  -1.52516   0.69596
H    -3.09379   0.54138   1.28210
H    -1.69272   0.21877   2.34068
H    -2.96868  -0.99194   2.17988
26

C     2.49783  -1.81582  -1.27047
N     1.74090  -0.59303  -1.08595
C     1.48092  -0.11952   0.15361
O     2.01514  -0.58018   1.17317
C     0.53820   1.01101   0.26695
C     0.36679   1.64517   1.51240
N     0.22144   2.15904   2.55142
N    -0.23370   1.36602  -0.74824
C    -1.08135   1.33790  -1.58583
C    -2.15530  -0.87553  -0.79435
C    -1.55675  -1.63253  -1.95029
C    -1.71982  -0.91247   0.46150
C    -2.39543  -0.23724   1.62236
H     3.45829  -1.75614  -0.73721
H     2.69940  -1.94719  -2.34119
H     1.95398  -2.69786  -0.89933
H     1.17540  -0.27158  -1.86388
H    -1.52688   1.58723  -2.47755
H    -3.05129  -0.25868  -1.02027
H    -1.47066  -1.06810  -2.90049
H    -2.23229  -2.47383  -2.14510
H    -0.56573  -2.02881  -1.70022
H    -0.83506  -1.52583   0.69549
H    -3.09302   0.54190   1.28223
H    -1.69355   0.21737   2.34261
H    -2.96871  -0.99341   2.17690
26

C     2.49809  -1.81516  -1.27057
N     1.74103  -0.59238  -1.08580
C     1.47875  -0.12080   0.15425
O     2.01528  -0.58042   1.17336
C     0.52758   1.00194   0.26878
C     0.36475   1.64213   1.51217
N     0.22123   2.15838   2.55035
N    -0.23109   1.37331  -0.75415
C    -1.09146   1.30940  -1.57333
C    -2.14258  -0.85191  -0.80238
C    -1.55668  -1.62995  -1.95029
C    -1.71078  -0.90247   0.46137
C    -2.39382  -0.23681   1.62136
H     3.45836  -1.75602  -0.73722
H     2.69950  -1.94697  -2.34121
H     1.95404  -2.69769  -0.89941
H     1.17504  -0.27163  -1.86363
H    -1.52956   1.58034  -2.47387
H    -3.05138  -0.25841  -1.01977
H    -1.47217  -1.07116  -2.90264
H    -2.23351  -2.47301  -2.13972
H    -0.56550  -2.02775  -1.70065
H    -0.83536  -1.52650   0.69502
H    -3.09225   0.54243   1.28237
H    -1.69437   0.21597   2.34454
H    -2.96874  -0.99487   2.17392
26

C     2.49836  -1.81449  -1.27066
N     1.74116  -0.59172  -1.08566
C     1.47659  -0.12209   0.15488
O     2.01542  -0.58066   1.17355
C     0.51697   0.99287   0.27061
C     0.36272   1.63909   1.51193
N     0.22102   2.15772   2.54928
N    -0.22849   1.38060  -0.76005
C    -1.10158   1.28090  -1.56082
C    -2.12986  -0.82828  -0.81040
C    -1.55662  -1.62737  -1.95029
C    -1.70173  -0.89247   0.46123
C    -2.39220  -0.23639   1.62037
H     3.45843  -1.75589  -0.73723
H     2.69961  -1.94675  -2.34124
H     1.95410  -2.69752  -0.89948
H     1.17467  -0.27167  -1.86337
H    -1.53224   1.57345  -2.47018
H    -3.05148  -0.25815  -1.01927
H    -1.47367  -1.07421  -2.90478
H    -2.23472  -2.47218  -2.13433
H    -0.56526  -2.02669  -1.70107
H    -0.83566  -1.52717   0.69455
H    -3.09148   0.54295   1.28251
H    -1.69520   0.21457   2.34647
H    -2.96877  -0.99634   2.17093
26

C     2.49862  -1.81382  -1.27076
N     1.74130  -0.59107  -1.08551
C     1.47443  -0.12337   0.15552
O     2.01555  -0.58089   1.17374
C     0.50636   0.98379   0.27244
C     0.36068   1.63605   1.51169
N     0.22081   2.15707   2.54821
N    -0.22588   1.38789  -0.76596
C    -1.11170   1.25241  -1.54832
C    -2.11714  -0.80466  -0.81842
C    -1.55655  -1.62479  -1.95028
C    -1.69268  -0.88248   0.46110
C    -2.39059  -0.23596   1.61937
H     3.45850  -1.75577  -0.73724
H     2.69971  -1.94653  -2.34127
H     1.95416  -2.69735  -0.89956
H     1.17430  -0.27172  -1.86312
H    -1.53492   1.56656  -2.46650
H    -3.05157  -0.25788  -1.01878
H    -1.47518  -1.07727  -2.90693
H    -2.23594  -2.47136  -2.12894
H    -0.56503  -2.02563  -1.70150
H    -0.83596  -1.52784   0.69408
H    -3.09072   0.54347   1.28264
H    -1.69603   0.21318   2.34840
H    -2.96880  -0.99781   2.16795
26

C     2.49888  -1.81315  -1.27086
N     1.74143  -0.59041  -1.08537
C     1.47226  -0.12466   0.15616
O     2.01569  -0.58113   1.17393
C     0.49574   0.97472   0.27427
C     0.35865   1.63301   1.51146
N     0.22061   2.15641   2.54714
N    -0.22327   1.39518  -0.77187
C    -1.12182   1.22391  -1.53582
C    -2.10441  -0.78104  -0.82644
C    -1.55649  -1.62222  -1.95028
C    -1.68363  -0.87248   0.46097
C    -2.38897  -0.23554   1.61838
H     3.45857  -1.75565  -0.73725
H     2.69981  -1.94631  -2.34130
H     1.95422  -2.69718  -0.89964
H     1.17393  -0.27176  -1.86287
H    -1.53759   1.55967  -2.46281
H    -3.05167  -0.25761  -1.01828
H    -1.47669  -1.08032  -2.90907
H    -2.23716  -2.47053  -2.12356
H    -0.56480  -2.02456  -1.70193
H    -0.83626  -1.52851   0.69361
H    -3.08995   0.54400   1.28278
H    -1.69686   0.21178   2.35033
H    -2.96883  -0.99928   2.16497
26

C     2.49914  -1.81248  -1.27096
N     1.74156  -0.58976  -1.08522
C     1.47010  -0.12594   0.15679
O     2.01583  -0.58137   1.17412
C     0.48513   0.96565   0.27610
C     0.35661   1.62997   1.51122
N     0.22040   2.15575   2.54607
N    -0.22066   1.40247  -0.77777
C    -1.13193   1.19541  -1.52331
C    -2.09169  -0.75741  -0.83446
C    -1.55642  -1.61964  -1.95028
C    -1.67458  -0.86248   0.46083
C    -2.38736  -0.23511   1.61739
H     3.45864  -1.75553  -0.73726
H     2.69992  -1.94609  -2.34133
H     1.95428  -2.69701  -0.89972
H     1.17356  -0.27180  -1.86261
H    -1.54027   1.55278  -2.45913
H    -3.05176  -0.25734  -1.01779
H    -1.47819  -1.08337  -2.91122
H    -2.23837  -2.46971  -2.11817
H    -0.56457  -2.02350  -1.70235
H    -0.83656  -1.52918   0.69314
H    -3.08918   0.54452   1.28291
H    -1.69769   0.21038   2.35226
H    -2.96886  -1.00075   2.16199
26

C     2.49941  -1.81181  -1.27106
N     1.74170  -0.58910  -1.08508
C     1.46793  -0.12723   0.15743
O     2.01597  -0.58161   1.17431
C     0.47452   0.95657   0.27794
C     0.35458   1.62693   1.51098
N     0.22019   2.15509   2.54500
N    -0.21805   1.40977  -0.78368
C    -1.14205   1.16692  -1.51081
C    -2.07897  -0.73379  -0.84249
C    -1.55635  -1.61706  -1.95027
C    -1.66554  -0.85248   0.46070
C    -2.38574  -0.23469   1.61639
H     3.45871  -1.75541  -0.73726
H     2.70002  -1.94587  -2.34136
H     1.95434  -2.69684  -0.89979
H     1.17319  -0.27185  -1.86236
H    -1.54295   1.54589  -2.45544
H    -3.05186  -0.25707  -1.01729
H    -1.47970  -1.08643  -2.91336
H    -2.23959  -2.46889  -2.11278
H    -0.56434  -2.02244  -1.70278
H    -0.83686  -1.52984   0.69268
H    -3.08841   0.54504   1.28305
H    -1.69852   0.20898   2.35419
H    -2.96889  -1.00221   2.15900
26

C     2.49967  -1.81114  -1.27116
N     1.74183  -0.58845  -1.08493
C     1.46577  -0.12851   0.15807
O     2.01610  -0.58185   1.17451
C     0.46390   0.94750   0.27977
C     0.35254   1.62390   1.51075
N     0.21999   2.15443   2.54392
N    -0.21544   1.41706  -0.78958
C    -1.15217   1.13842  -1.49830
C    -2.06625  -0.71017  -0.85051
C    -1.55629  -1.61448  -1.95027
C    -1.65649  -0.84249   0.46057
C    -2.38413  -0.23426   1.61540
H     3.45877  -1.75529  -0.73727
H     2.70012  -1.94565  -2.34139
H     1.95440  -2.69667  -0.89987
H     1.17283  -0.27189  -1.86211
H    -1.54563   1.53900  -2.45176
H    -3.05195  -0.25681  -1.01679
H    -1.48121  -1.08948  -2.91551
H    -2.24081  -2.46806  -2.10740
H    -0.56411  -2.02138  -1.70320
H    -0.83716  -1.53051   0.69221
H    -3.08764   0.54557   1.28318
H    -1.69935   0.20758   2.35612
H    -2.96892  -1.00368   2.15602
26

C     2.49993  -1.81048  -1.27125
N     1.74197  -0.58779  -1.08479
C     1.46360  -0.12980   0.15870
O     2.01624  -0.58208   1.17470
C     0.45329   0.93843   0.28160
C     0.35050   1.62086   1.51051
N     0.21978   2.15377   2.54285
N    -0.21284   1.42435  -0.79549
C    -1.16228   1.10993  -1.48580
C    -2.05353  -0.68655  -0.85853
C    -1.55622  -1.61190  -1.95027
C    -1.64744  -0.83249   0.46043
C    -2.38251  -0.23384   1.61440
H     3.45884  -1.75517  -0.73728
H     2.70023  -1.94543  -2.34142
H     1.95446  -2.69650  -0.89995
H     1.17246  -0.27194  -1.86185
H    -1.54830   1.53211  -2.44807
H    -3.05205  -0.25654  -1.01630
H    -1.48271  -1.09254  -2.91765
H    -2.24202  -2.46724  -2.10201
H    -0.56388  -2.02032  -1.70363
H    -0.83746  -1.53118   0.69174
H    -3.08688   0.54609   1.28332
H    -1.70018   0.20618   2.35805
H    -2.96895  -1.00515   2.15304
26

C     2.50019  -1.80981  -1.27135
N     1.74210  -0.58714  -1.08464
C     1.46144  -0.13108   0.15934
O     2.01638  -0.58232   1.17489
C     0.44267   0.92936   0.28343
C     0.34847   1.61782   1.51027
N     0.21957   2.15311   2.54178
N    -0.21023   1.43164  -0.80140
C    -1.17240   1.08143  -1.47329
C    -2.04080  -0.66292  -0.86655
C    -1.55615  -1.60932  -1.95026
C    -1.63839  -0.82249   0.46030
C    -2.38090  -0.23342   1.61341
H     3.45891  -1.75505  -0.73729
H     2.70033  -1.94521  -2.34145
H     1.95452  -2.69633  -0.90002
H     1.17209  -0.27198  -1.86160
H    -1.55098   1.52521  -2.44439
H    -3.05214  -0.25627  -1.01580
H    -1.48422  -1.09559  -2.91980
H    -2.24324  -2.46642  -2.09662
H    -0.56365  -2.01926  -1.70405
H    -0.83776  -1.53185   0.69127
H    -3.08611   0.54661   1.28345
H    -1.70101   0.20478   2.35998
H    -2.96898  -1.00662   2.15006
26

C     2.50046  -1.80914  -1.27145
N     1.74223  -0.58648  -1.08450
C     1.45927  -0.13237   0.15998
O     2.01652  -0.58256   1.17508
C     0.43206   0.92028   0.28526
C     0.34643   1.61478   1.51004
N     0.21936   2.15245   2.54071
N    -0.20762   1.43893  -0.80730
C    -1.18252   1.05293  -1.46079
C    -2.02808  -0.63930  -0.87458
C    -1.55609  -1.60674  -1.95026
C    -1.62935  -0.81250   0.46017
C    -2.37928  -0.23299   1.61241
H     3.45898  -1.75492  -0.73730
H     2.70043  -1.94499  -2.34147
H     1.95458  -2.69616  -0.90010
H     1.17172  -0.27203  -1.86135
H    -1.55366   1.51832  -2.44071
H    -3.05224  -0.25600  -1.01530
H    -1.48573  -1.09865  -2.92195
H    -2.24446  -2.46559  -2.09124
H    -0.56342  -2.01819  -1.70448
H    -0.83806  -1.53252   0.69080
H    -3.08534   0.54714   1.28359
H    -1.70184   0.20338   2.36191
H    -2.96901  -1.00808   2.14707
26

C     2.50072  -1.80847  -1.27155
N     1.74237  -0.58582  -1.08435
C     1.45711  -0.13365   0.16061
O     2.01665  -0.58280   1.17527
C     0.42145   0.91121   0.28709
C     0.34440   1.61174   1.50980
N     0.21916   2.15179   2.53964
N    -0.20501   1.44622  -0.81321
C    -1.19263   1.02444  -1.44829
C    -2.01536  -0.61568  -0.88260
C    -1.55602  -1.60416  -1.95025
C    -1.62030  -0.80250   0.46003
C    -2.37767  -0.23257   1.61142
H     3.45905  -1.75480  -0.73731
H     2.70054  -1.94477  -2.34150
H     1.95464  -2.69599  -0.90018
H     1.17135  -0.27207  -1.86109
H    -1.55634   1.51143  -2.43702
H    -3.05233  -0.25573  -1.01481
H    -1.48723  -1.10170  -2.92409
H    -2.24567  -2.46477  -2.08585
H    -0.56319  -2.01713  -1.70490
H    -0.83836  -1.53319   0.69033
H    -3.08457   0.54766   1.28372
H    -1.70267   0.20198   2.36384
H    -2.96904  -1.00955   2.14409
26

C     2.50098  -1.80780  -1.27165
N     1.74250  -0.58517  -1.08421
C     1.45494  -0.13493   0.16125
O     2.01679  -0.58304   1.17546
C     0.41083   0.90214   0.28892
C     0.34236   1.60870   1.50956
N     0.21895   2.15113   2.53857
N    -0.20240   1.45352  -0.81912
C    -1.20275   0.99594  -1.43578
C    -2.00264  -0.59205  -0.89062
C    -1.55596  -1.60158  -1.95025
C    -1.61125  -0.79250   0.45990
C    -2.37606  -0.23214   1.61042
H     3.45912  -1.75468  -0.73732
H     2.70064  -1.94455  -2.34153
H     1.95470  -2.69582  -0.90026
H     1.17098  -0.27212  -1.86084
H    -1.55901   1.50454  -2.43334
H    -3.05243  -0.25547  -1.01431
H    -1.48874  -1.10476  -2.92624
H    -2.24689  -2.46394  -2.08046
H    -0.56296  -2.01607  -1.70533
H    -0.83866  -1.53386   0.68986
H    -3.08381   0.54818   1.28386
H    -1.70350   0.20059   2.36577
H    -2.96907  -1.01102   2.14111
26

C     2.50124  -1.80713  -1.27175
N     1.74263  -0.58451  -1.08406
C     1.45278  -0.13622   0.16189
O     2.01693  -0.58327   1.17565
C     0.40022   0.89306   0.29076
C     0.34033   1.60566   1.50933
N     0.21874   2.15047   2.53750
N    -0.19980   1.46081  -0.82502
C    -1.21287   0.96744  -1.42328
C    -1.98992  -0.56843  -0.89864
C    -1.55589  -1.59900  -1.95025
C    -1.60220  -0.78250   0.45977
C    -2.37444  -0.23172   1.60943
H     3.45919  -1.75456  -0.73733
H     2.70075  -1.94433  -2.34156
H     1.95476  -2.69565  -0.90033
H     1.17062  -0.27216  -1.86059
H    -1.56169   1.49765  -2.42965
H    -3.05252  -0.25520  -1.01381
H    -1.49024  -1.10781  -2.92838
H    -2.24810  -2.46312  -2.07508
H    -0.56273  -2.01501  -1.70575
H    -0.83897  -1.53453   0.68939
H    -3.08304   0.54871   1.28399
H    -1.70433   0.19919   2.36770
H    -2.96910  -1.01249   2.13812
26

C     2.50151  -1.80647  -1.27184
N     1.74277  -0.58386  -1.08392
C     1.45061  -0.13750   0.16252
O     2.01706  -0.58351   1.17584
C     0.38961   0.88399   0.29259
C     0.33829   1.60262   1.50909
N     0.21853   2.14981   2.53643
N    -0.19719   1.46810  -0.83093
C    -1.22299   0.93895  -1.41077
C    -1.97719  -0.54481  -0.90666
C    -1.55582  -1.59642  -1.95024
C    -1.59316  -0.77251   0.45963
C    -2.37283  -0.23129   1.60844
H     3.45926  -1.75444  -0.73734
H     2.70085  -1.94411  -2.34159
H     1.95482  -2.69548  -0.90041
H     1.17025  -0.27221  -1.86033
H    -1.56437   1.49076  -2.42597
H    -3.05261  -0.25493  -1.01332
H    -1.49175  -1.11087  -2.93053
H    -2.24932  -2.46230  -2.06969
H    -0.56250  -2.01395  -1.70618
H    -0.83927  -1.53519   0.68892
H    -3.08227   0.54923   1.28413
H    -1.70516   0.19779   2.36963
H    -2.96913  -1.01396   2.13514
26

C     2.50177  -1.80580  -1.27194
N     1.74290  -0.58320  -1.08377
C     1.44845  -0.13879   0.16316
O     2.01720  -0.58375   1.17604
C     0.37899   0.87492   0.29442
C     0.33626   1.59958   1.50885
N     0.21833   2.14915   2.53536
N    -0.19458   1.47539  -0.83683
C    -1.23310   0.91045  -1.39827
C    -1.96447  -0.52118  -0.91469
C    -1.55576  -1.59384  -1.95024
C    -1.58411  -0.76251   0.45950
C    -2.37121  -0.23087   1.60744
H     3.45933  -1.75432  -0.73735
H     2.70095  -1.94389  -2.34162
H     1.95488  -2.69531  -0.90049
H     1.16988  -0.27225  -1.86008
H    -1.56705   1.48387  -2.42228
H    -3.05271  -0.25466  -1.01282
H    -1.49326  -1.11392  -2.93267
H    -2.25054  -2.46147  -2.06430
H    -0.56227  -2.01289  -1.70660
H    -0.83957  -1.53586   0.68845
H    -3.08150   0.54975   1.28427
H    -1.70599   0.19639   2.37156
H    -2.96916  -1.01542   2.13216
26

C     2.50203  -1.80513  -1.27204
N     1.74304  -0.58255  -1.08363
C     1.44629  -0.14007   0.16380
O     2.01734  -0.58399   1.17623
C     0.36838   0.86585   0.29625
C     0.33422   1.59654   1.50862
N     0.21812   2.14849   2.53429
N    -0.19197   1.48268  -0.84274
C    -1.24322   0.88196  -1.38576
C    -1.95175  -0.49756  -0.92271
C    -1.55569  -1.59126  -1.95024
C    -1.57506  -0.75251   0.45936
C    -2.36960  -0.23044   1.60645
H     3.45940  -1.75420  -0.73736
H     2.70106  -1.94367  -2.34165
H     1.95494  -2.69514  -0.90056
H     1.16951  -0.27230  -1.85983
H    -1.56972   1.47698  -2.41860
H    -3.05280  -0.25439  -1.01232
H    -1.49476  -1.11698  -2.93482
H    -2.25175  -2.46065  -2.05892
H    -0.56204  -2.01182  -1.70703
H    -0.83987  -1.53653   0.68799
H    -3.08074   0.55028   1.28440
H    -1.70682   0.19499   2.37349
H    -2.96919  -1.01689   2.12918
26

C     2.50177  -1.80580  -1.27194
N     1.74290  -0.58320  -1.08377
C     1.44845  -0.13879   0.16316
O     2.01720  -0.58375   1.17604
C     0.37899   0.87492   0.29442
C     0.33626   1.59958   1.50885
N     0.21833   2.14915   2.53536
N    -0.19458   1.47539  -0.83683
C    -1.23310   0.91045  -1.39827
C    -1.96447  -0.52118  -0.91469
C    -1.55576  -1.59384  -1.95024
C    -1.58411  -0.76251   0.45950
C    -2.37121  -0.23087   1.60744
H     3.45933  -1.75432  -0.73735
H     2.70095  -1.94389  -2.34162
H     1.95488  -2.69531  -0.90049
H     1.16988  -0.27225  -1.86008
H    -1.56705   1.48387  -2.42228
H    -3.05271  -0.25466  -1.01282
H    -1.49326  -1.11392  -2.93267
H    -2.25054  -2.46147  -2.06430
H    -0.56227  -2.01289  -1.70660
H    -0.83957  -1.53586   0.68845
H    -3.08150   0.54975   1.28427
H    -1.70599   0.19639   2.37156
H    -2.96916  -1.01542   2.13216
26

C     2.50151  -1.80647  -1.27184
N     1.74277  -0.58386  -1.08392
C     1.45061  -0.13750   0.16252
O     2.01706  -0.58351   1.17584
C     0.38961   0.88399   0.29259
C     0.33829   1.60262   1.50909
N     0.21853   2.14981   2.53643
N    -0.19719   1.46810  -0.83093
C    -1.22299   0.93895  -1.41077
C    -1.97719  -0.54481  -0.90666
C    -1.55582  -1.59642  -1.95024
C    -1.59316  -0.77251   0.45963
C    -2.37283  -0.23129   1.60844
H     3.45926  -1.75444  -0.73734
H     2.70085  -1.94411  -2.34159
H     1.95482  -2.69548  -0.90041
H     1.17025  -0.27221  -1.86033
H    -1.56437   1.49076  -2.42597
H    -3.05261  -0.25493  -1.01332
H    -1.49175  -1.11087  -2.93053
H    -2.24932  -2.46230  -2.06969
H    -0.56250  -2.01395  -1.70618
H    -0.83927  -1.53519   0.68892
H    -3.08227   0.54923   1.28413
H    -1.70516   0.19779   2.36963
H    -2.96913  -1.01396   2.13514
26

C     2.50124  -1.80713  -1.27175
N     1.74263  -0.58451  -1.08406
C     1.45278  -0.13622   0.16189
O     2.01693  -0.58327   1.17565
C     0.40022   0.89306   0.29076
C     0.34033   1.60566   1.50933
N     0.21874   2.15047   2.53750
N    -0.19980   1.46081  -0.82502
C    -1.21287   0.96744  -1.42328
C    -1.98992  -0.56843  -0.89864
C    -1.55589  -1.59900  -1.95025
C    -1.60220  -0.78250   0.45977
C    -2.37444  -0.23172   1.60943
H     3.45919  -1.75456  -0.73733
H     2.70075  -1.94433  -2.34156
H     1.95476  -2.69565  -0.90033
H     1.17062  -0.27216  -1.86059
H    -1.56169   1.49765  -2.42965
H    -3.05252  -0.25520  -1.01381
H    -1.49024  -1.10781  -2.92838
H    -2.24810  -2.46312  -2.07508
H    -0.56273  -2.01501  -1.70575
H    -0.83897  -1.53453   0.68939
H    -3.08304   0.54871   1.28399
H    -1.70433   0.19919   2.36770
H    -2.96910  -1.01249   2.13812
26

C     2.50098  -1.80780  -1.27165
N     1.74250  -0.58517  -1.08421
C     1.45494  -0.13493   0.16125
O     2.01679  -0.58304   1.17546
C     0.41083   0.90214   0.28892
C     0.34236   1.60870   1.50956
N     0.21895   2.15113   2.53857
N    -0.20240   1.45352  -0.81912
C    -1.20275   0.99594  -1.43578
C    -2.00264  -0.59205  -0.89062
C    -1.55596  -1.60158  -1.95025
C    -1.61125  -0.79250   0.45990
C    -2.37606  -0.23214   1.61042
H     3.45912  -1.75468  -0.73732
H     2.70064  -1.94455  -2.34153
H     1.95470  -2.69582  -0.90026
H     1.17098  -0.27212  -1.86084
H    -1.55901   1.50454  -2.43334
H    -3.05243  -0.25547  -1.01431
H    -1.48874  -1.10476  -2.92624
H    -2.24689  -2.46394  -2.08046
H    -0.56296  -2.01607  -1.70533
H    -0.83866  -1.53386   0.68986
H    -3.08381   0.54818   1.28386
H    -1.70350   0.20059   2.36577
H    -2.96907  -1.01102   2.14111
26

C     2.50072  -1.80847  -1.27155
N     1.74237  -0.58582  -1.08435
C     1.45711  -0.13365   0.16061
O     2.01665  -0.58280   1.17527
C     0.42145   0.91121   0.28709
C     0.34440   1.61174   1.50980
N     0.21916   2.15179   2.53964
N    -0.20501   1.44622  -0.81321
C    -1.19263   1.02444  -1.44829
C    -2.01536  -0.61568  -0.88260
C    -1.55602  -1.60416  -1.95025
C    -1.62030  -0.80250   0.46003
C    -2.37767  -0.23257   1.61142
H     3.45905  -1.75480  -0.73731
H     2.70054  -1.94477  -2.34150
H     1.95464  -2.69599  -0.90018
H     1.17135  -0.27207  -1.86109
H    -1.55634   1.51143  -2.43702
H    -3.05233  -0.25573  -1.01481
H    -1.48723  -1.10170  -2.92409
H    -2.24567  -2.46477  -2.08585
H    -0.56319  -2.01713  -1.70490
H    -0.83836  -1.53319   0.69033
H    -3.08457   0.54766   1.28372
H    -1.70267   0.20198   2.36384
H    -2.96904  -1.00955   2.14409
26

C     2.50046  -1.80914  -1.27145
N     1.74223  -0.58648  -1.08450
C     1.45927  -0.13237   0.15998
O     2.01652  -0.58256   1.17508
C     0.43206   0.92028   0.28526
C     0.34643   1.61478   1.51004
N     0.21936   2.15245   2.54071
N    -0.20762   1.43893  -0.80730
C    -1.18252   1.05293  -1.46079
C    -2.02808  -0.63930  -0.87458
C    -1.55609  -1.60674  -1.95026
C    -1.62935  -0.81250   0.46017
C    -2.37928  -0.23299   1.61241
H     3.45898  -1.75492  -0.73730
H     2.70043  -1.94499  -2.34147
H     1.95458  -2.69616  -0.90010
H     1.17172  -0.27203  -1.86135
H    -1.55366   1.51832  -2.44071
H    -3.05224  -0.25600  -1.01530
H    -1.48573  -1.09865  -2.92195
H    -2.24446  -2.46559  -2.09124
H    -0.56342  -2.01819  -1.70448
H    -0.83806  -1.53252   0.69080
H    -3.08534   0.54714   1.28359
H    -1.70184   0.20338   2.36191
H    -2.96901  -1.00808   2.14707
26

C     2.50019  -1.80981  -1.27135
N     1.74210  -0.58714  -1.08464
C     1.46144  -0.13108   0.15934
O     2.01638  -0.58232   1.17489
C     0.44267   0.92936   0.28343
C     0.34847   1.61782   1.51027
N     0.21957   2.15311   2.54178
N    -0.21023   1.43164  -0.80140
C    -1.17240   1.08143  -1.47329
C    -2.04080  -0.66292  -0.86655
C    -1.55615  -1.60932  -1.95026
C    -1.63839  -0.82249   0.46030
C    -2.38090  -0.23342   1.61341
H     3.45891  -1.75505  -0.73729
H     2.70033  -1.94521  -2.34145
H     1.95452  -2.69633  -0.90002
H     1.17209  -0.27198  -1.86160
H    -1.55098   1.52521  -2.44439
H    -3.05214  -0.25627  -1.01580
H    -1.48422  -1.09559  -2.91980
H    -2.24324  -2.46642  -2.09662
H    -0.56365  -2.01926  -1.70405
H    -0.83776  -1.53185   0.69127
H    -3.08611   0.54661   1.28345
H    -1.70101   0.20478   2.35998
H    -2.96898  -1.00662   2.15006
26

C     2.49993  -1.81048  -1.27125
N     1.74197  -0.58779  -1.08479
C     1.46360  -0.12980   0.15870
O     2.01624  -0.58208   1.17470
C     0.45329   0.93843   0.28160
C     0.35050   1.62086   1.51051
N     0.21978   2.15377   2.54285
N    -0.21284   1.42435  -0.79549
C    -1.16228   1.10993  -1.48580
C    -2.05353  -0.68655  -0.85853
C    -1.55622  -1.61190  -1.95027
C    -1.64744  -0.83249   0.46043
C    -2.38251  -0.23384   1.61440
H     3.45884  -1.75517  -0.73728
H     2.70023  -1.94543  -2.34142
H     1.95446  -2.69650  -0.89995
H     1.17246  -0.27194  -1.86185
H    -1.54830   1.53211  -2.44807
H    -3.05205  -0.25654  -1.01630
H    -1.48271  -1.09254  -2.91765
H    -2.24202  -2.46724  -2.10201
H    -0.56388  -2.02032  -1.70363
H    -0.83746  -1.53118   0.69174
H    -3.08688   0.54609   1.28332
H    -1.70018   0.20618   2.35805
H    -2.96895  -1.00515   2.15304
26

C     2.49967  -1.81114  -1.27116
N     1.74183  -0.58845  -1.08493
C     1.46577  -0.12851   0.15807
O     2.01610  -0.58185   1.17451
C     0.46390   0.94750   0.27977
C     0.35254   1.62390   1.51075
N     0.21999   2.15443   2.54392
N    -0.21544   1.41706  -0.78958
C    -1.15217   1.13842  -1.49830
C    -2.06625  -0.71017  -0.85051
C    -1.55629  -1.61448  -1.95027
C    -1.65649  -0.84249   0.46057
C    -2.38413  -0.23426   1.61540
H     3.45877  -1.75529  -0.73727
H     2.70012  -1.94565  -2.34139
H     1.95440  -2.69667  -0.89987
H     1.17283  -0.27189  -1.86211
H    -1.54563   1.53900  -2.45176
H    -3.05195  -0.25681  -1.01679
H    -1.48121  -1.08948  -2.91551
H    -2.24081  -2.46806  -2.10740
H    -0.56411  -2.02138  -1.70320
H    -0.83716  -1.53051   0.69221
H    -3.08764   0.54557   1.28318
H    -1.69935   0.20758   2.35612
H    -2.96892  -1.00368   2.15602
26

C     2.49941  -1.81181  -1.27106
N     1.74170  -0.58910  -1.08508
C     1.46793  -0.12723   0.15743
O     2.01597  -0.58161   1.17431
C     0.47452   0.95657   0.27794
C     0.35458   1.62693   1.51098
N     0.22019   2.15509   2.54500
N    -0.21805   1.40977  -0.78368
C    -1.14205   1.16692  -1.51081
C    -2.07897  -0.73379  -0.84249
C    -1.55635  -1.61706  -1.95027
C    -1.66554  -0.85248   0.46070
C    -2.38574  -0.23469   1.61639
H     3.45871  -1.75541  -0.73726
H     2.70002  -1.94587  -2.34136
H     1.95434  -2.69684  -0.89979
H     1.17319  -0.27185  -1.86236
H    -1.54295   1.54589  -2.45544
H    -3.05186  -0.25707  -1.01729
H    -1.47970  -1.08643  -2.91336
H    -2.23959  -2.46889  -2.11278
H    -0.56434  -2.02244  -1.70278
H    -0.83686  -1.52984   0.69268
H    -3.08841   0.54504   1.28305
H    -1.69852   0.20898   2.35419
H    -2.96889  -1.00221   2.15900
26

C     2.49914  -1.81248  -1.27096
N     1.74156  -0.58976  -1.08522
C     1.47010  -0.12594   0.15679
O     2.01583  -0.58137   1.17412
C     0.48513   0.96565   0.27610
C     0.35661   1.62997   1.51122
N     0.22040   2.15575   2.54607
N    -0.22066   1.40247  -0.77777
C    -1.13193   1.19541  -1.52331
C    -2.09169  -0.75741  -0.83446
C    -1.55642  -1.61964  -1.95028
C    -1.67458  -0.86248   0.46083
C    -2.38736  -0.23511   1.61739
H     3.45864  -1.75553  -0.73726
H     2.69992  -1.94609  -2.34133
H     1.95428  -2.69701  -0.89972
H     1.17356  -0.27180  -1.86261
H    -1.54027   1.55278  -2.45913
H    -3.05176  -0.25734  -1.01779
H    -1.47819  -1.08337  -2.91122
H    -2.23837  -2.46971  -2.11817
H    -0.56457  -2.02350  -1.70235
H    -0.83656  -1.52918   0.69314
H    -3.08918   0.54452   1.28291
H    -1.69769   0.21038   2.35226
H    -2.96886  -1.00075   2.16199
26

C     2.49888  -1.81315  -1.27086
N     1.74143  -0.59041  -1.08537
C     1.47226  -0.12466   0.15616
O     2.01569  -0.58113   1.17393
C     0.49574   0.97472   0.27427
C     0.35865   1.63301   1.51146
N     0.22061   2.15641   2.54714
N    -0.22327   1.39518  -0.77187
C    -1.12182   1.22391  -1.53582
C    -2.10441  -0.78104  -0.82644
C    -1.55649  -1.62222  -1.95028
C    -1.68363  -0.87248   0.46097
C    -2.38897  -0.23554   1.61838
H     3.45857  -1.75565  -0.73725
H     2.69981  -1.94631  -2.34130
H     1.95422  -2.69718  -0.89964
H     1.17393  -0.27176  -1.86287
H    -1.53759   1.55967  -2.46281
H    -3.05167  -0.25761  -1.01828
H    -1.47669  -1.08032  -2.90907
H    -2.23716  -2.47053  -2.12356
H    -0.56480  -2.02456  -1.70193
H    -0.83626  -1.52851   0.69361
H    -3.08995   0.54400   1.28278
H    -1.69686   0.21178   2.35033
H    -2.96883  -0.99928   2.16497
26

C     2.49862  -1.81382  -1.27076
N     1.74130  -0.59107  -1.08551
C     1.47443  -0.12337   0.15552
O     2.01555  -0.58089   1.17374
C     0.50636   0.98379   0.27244
C     0.36068   1.63605   1.51169
N     0.22081   2.15707   2.54821
N    -0.22588   1.38789  -0.76596
C    -1.11170   1.25241  -1.54832
C    -2.11714  -0.80466  -0.81842
C    -1.55655  -1.62479  -1.95028
C    -1.69268  -0.88248   0.46110
C    -2.39059  -0.23596   1.61937
H     3.45850  -1.75577  -0.73724
H     2.69971  -1.94653  -2.34127
H     1.95416  -2.69735  -0.89956
H     1.17430  -0.27172  -1.86312
H    -1.53492   1.56656  -2.46650
H    -3.05157  -0.25788  -1.01878
H    -1.47518  -1.07727  -2.90693
H    -2.23594  -2.47136  -2.12894
H    -0.56503  -2.02563  -1.70150
H    -0.83596  -1.52784   0.69408
H    -3.09072   0.54347   1.28264
H    -1.69603   0.21318   2.34840
H    -2.96880  -0.99781   2.16795
26

C     2.49836  -1.81449  -1.27066
N     1.74116  -0.59172  -1.08566
C     1.47659  -0.12209   0.15488
O     2.01542  -0.58066   1.17355
C     0.51697   0.99287   0.27061
C     0.36272   1.63909   1.51193
N     0.22102   2.15772   2.54928
N    -0.22849   1.38060  -0.76005
C    -1.10158   1.28090  -1.56082
C    -2.12986  -0.82828  -0.81040
C    -1.55662  -1.62737  -1.95029
C    -1.70173  -0.89247   0.46123
C    -2.39220  -0.23639   1.62037
H     3.45843  -1.75589  -0.73723
H     2.69961  -1.94675  -2.34124
H     1.95410  -2.69752  -0.89948
H     1.17467  -0.27167  -1.86337
H    -1.53224   1.57345  -2.47018
H    -3.05148  -0.25815  -1.01927
H    -1.47367  -1.07421  -2.90478
H    -2.23472  -2.47218  -2.13433
H    -0.56526  -2.02669  -1.70107
H    -0.83566  -1.52717   0.69455
H    -3.09148   0.54295   1.28251
H    -1.69520   0.21457   2.34647
H    -2.96877  -0.99634   2.17093
26

C     2.49809  -1.81516  -1.27057
N     1.74103  -0.59238  -1.08580
C     1.47875  -0.12080   0.15425
O     2.01528  -0.58042   1.17336
C     0.52758   1.00194   0.26878
C     0.36475   1.64213   1.51217
N     0.22123   2.15838   2.55035
N    -0.23109   1.37331  -0.75415
C    -1.09146   1.30940  -1.57333
C    -2.14258  -0.85191  -0.80238
C    -1.55668  -1.62995  -1.95029
C    -1.71078  -0.90247   0.46137
C    -2.39382  -0.23681   1.62136
H     3.45836  -1.75602  -0.73722
H     2.69950  -1.94697  -2.34121
H     1.95404  -2.69769  -0.89941
H     1.17504  -0.27163  -1.86363
H    -1.52956   1.58034  -2.47387
H    -3.05138  -0.25841  -1.01977
H    -1.47217  -1.07116  -2.90264
H    -2.23351  -2.47301  -2.13972
H    -0.56550  -2.02775  -1.70065
H    -0.83536  -1.52650   0.69502
H    -3.09225   0.54243   1.28237
H    -1.69437   0.21597   2.34454
H    -2.96874  -0.99487   2.17392
26

C     2.49783  -1.81582  -1.27047
N     1.74090  -0.59303  -1.08595
C     1.48092  -0.11952   0.15361
O     2.01514  -0.58018   1.17317
C     0.53820   1.01101   0.26695
C     0.36679   1.64517   1.51240
N     0.22144   2.15904   2.55142
N    -0.23370   1.36602  -0.74824
C    -1.08135   1.33790  -1.58583
C    -2.15530  -0.87553  -0.79435
C    -1.55675  -1.63253  -1.95029
C    -1.71982  -0.91247   0.46150
C    -2.39543  -0.23724   1.62236
H     3.45829  -1.75614  -0.73721
H     2.69940  -1.94719  -2.34119
H     1.95398  -2.69786  -0.89933
H     1.17540  -0.27158  -1.86388
H    -1.52688   1.58723  -2.47755
H    -3.05129  -0.25868  -1.02027
H    -1.47066  -1.06810  -2.90049
H    -2.23229  -2.47383  -2.14510
H    -0.56573  -2.02881  -1.70022
H    -0.83506  -1.52583   0.69549
H    -3.09302   0.54190   1.28223
H    -1.69355   0.21737   2.34261
H    -2.96871  -0.99341   2.17690
26

C     2.49757  -1.81649  -1.27037
N     1.74076  -0.59369  -1.08610
C     1.48308  -0.11823   0.15297
O     2.01501  -0.57994   1.17298
C     0.54881   1.02009   0.26511
C     0.36882   1.64821   1.51264
N     0.22164   2.15970   2.55249
N    -0.23631   1.35872  -0.74234
C    -1.07123   1.36639  -1.59834
C    -2.16802  -0.89915  -0.78633
C    -1.55682  -1.63511  -1.95030
C    -1.72887  -0.92246   0.46163
C    -2.39705  -0.23766   1.62335
H     3.45822  -1.75626  -0.73720
H     2.69930  -1.94741  -2.34116
H     1.95392  -2.69803  -0.89925
H     1.17577  -0.27154  -1.86413
H    -1.52421   1.59412  -2.48124
H    -3.05119  -0.25895  -1.02076
H    -1.46915  -1.06505  -2.89835
H    -2.23108  -2.47465  -2.15049
H    -0.56596  -2.02987  -1.69980
H    -0.83476  -1.52516   0.69596
H    -3.09379   0.54138   1.28210
H    -1.69272   0.21877   2.34068
H    -2.96868  -0.99194   2.17988
26

C     2.49731  -1.81716  -1.27027
N     1.74063  -0.59434  -1.08624
C     1.48525  -0.11695   0.15234
O     2.01487  -0.57970   1.17278
C     0.55942   1.02916   0.26328
C     0.37086   1.65125   1.51288
N     0.22185   2.16036   2.55356
N    -0.23892   1.35143  -0.73643
C    -1.06111   1.39489  -1.61084
C    -2.18075  -0.92277  -0.77831
C    -1.55688  -1.63769  -1.95030
C    -1.73792  -0.93246   0.46177
C    -2.39866  -0.23809   1.62435
H     3.45815  -1.75638  -0.73719
H     2.69919  -1.94763  -2.34113
H     1.95386  -2.69820  -0.89918
H     1.17614  -0.27149  -1.86439
H    -1.52153   1.60101  -2.48492
H    -3.05110  -0.25922  -1.02126
H    -1.46765  -1.06199  -2.89620
H    -2.22986  -2.47548  -2.15588
H    -0.56619  -2.03093  -1.69937
H    -0.83446  -1.52449   0.69643
H    -3.09455   0.54086   1.28196
H    -1.69189   0.22017   2.33875
H    -2.96865  -0.99047   2.18286
26

C     2.49704  -1.81783  -1.27017
N     1.74050  -0.59500  -1.08639
C     1.48741  -0.11566   0.15170
O     2.01473  -0.57947   1.17259
C     0.57004   1.03823   0.26145
C     0.37289   1.65429   1.51311
N     0.22206   2.16102   2.55463
N    -0.24153   1.34414  -0.73052
C    -1.05100   1.42338  -1.62334
C    -2.19347  -0.94640  -0.77029
C    -1.55695  -1.64027  -1.95031
C    -1.74697  -0.94246   0.46190
C    -2.40028  -0.23851   1.62534
H     3.45808  -1.75650  -0.73718
H     2.69909  -1.94785  -2.34110
H     1.95380  -2.69837  -0.89910
H     1.17651  -0.27145  -1.86464
H    -1.51885   1.60790  -2.48861
H    -3.05100  -0.25949  -1.02176
H    -1.46614  -1.05894  -2.89406
H    -2.22864  -2.47630  -2.16126
H    -0.56642  -2.03200  -1.69895
H    -0.83415  -1.52383   0.69690
H    -3.09532   0.54033   1.28183
H    -1.69106   0.22157   2.33682
H    -2.96862  -0.98900   2.18585
