12

O 2.872341909 -0.725550368 -1.965731136
C 0.708274510 -1.438133454 -1.048189829
C 0.136693150 -0.653426192 2.507586821
C -1.240258039 1.248942162 1.336473237
O -0.000523662 2.702217954 -2.047668262
C -1.337219150 0.618933928 -1.426651950
H 2.420631867 1.142067133 -2.349452328
H 0.343368830 -3.453865382 -1.068043972
H -0.736313435 -2.507443107 2.543228492
H 1.416610513 -0.301131486 4.072579914
H -1.520780890 3.184180092 1.932278770
H -3.046256503 0.158201975 -2.490803369

