16

C 2.553161894 0.918313771 -2.666304313
N 2.279818226 1.970497271 -0.475988714
C 2.241528444 0.766604951 1.722457243
O 0.887423268 -1.199828634 2.306875967
C -1.259639429 -1.910664649 1.095973878
C -2.901328512 0.129976591 0.035320512
O -2.983759292 2.327615598 1.566414961
H 0.151657929 -2.361455660 -3.198456311
H 2.361555816 2.082154385 -4.342649839
H 3.343230025 -0.957688482 -2.884606685
H 3.314201828 1.497691461 3.302051097
H -0.397868003 -2.808786696 -1.801893072
H -2.140227898 -3.399576537 2.186849539
H -2.338044731 0.648187815 -1.898958854
H -4.809645951 -0.649428326 -0.072430217
H -1.853592993 3.557267587 0.858866653

