15

O -0.663346971 -2.390362007 3.055852910
C 0.118092614 -2.131903825 0.720817171
C -1.122637252 -3.065994787 -1.375210090
C -1.807769213 0.978095559 1.192560407
C -0.178291011 2.588265786 -0.488487306
C 2.475955791 1.565516717 -0.349804482
C 2.619127716 -0.853482748 0.277599804
H -0.409952745 -2.698413160 -3.255131862
H -2.868191276 -4.110658084 -1.154789733
H -3.696815697 0.492089029 0.592328380
H -1.631599098 1.431690981 3.172900033
H -0.885600873 2.591647829 -2.428843596
H -0.277207837 4.521567559 0.249993986
H 4.086384798 2.757853853 -0.766136167
H 4.364048304 -1.905909361 0.457090772

