29

C     4.18163  -0.31352  -0.61314
O     2.83116   0.05963  -0.94580
C     2.05729   0.44763   0.05704
O     2.36839   0.48324   1.23410
C     0.71697   0.84284  -0.40915
C     0.37899   0.91515  -1.79185
N     0.18861   1.09579  -2.92592
N    -0.19184   1.14170   0.50196
N    -1.44029   1.23435   0.19451
C    -2.32067   1.64516   1.08496
N    -3.23229   2.00929   1.73327
C    -1.79782  -1.22573  -0.14587
C    -2.81007  -0.88989  -1.21487
C    -2.33862  -1.35682   1.26871
C    -0.55347  -1.54889  -0.48435
C     0.50820  -2.01607   0.39719
O     0.49888  -2.03071   1.63063
H     4.18284  -1.16381   0.07559
H     4.69397   0.54710  -0.14921
H     4.66447  -0.57572  -1.56069
H     0.13573   1.16822   1.48261
H    -3.21927  -1.86622  -1.42562
H    -2.33499  -0.47895  -2.12074
H    -3.62194  -0.21780  -0.89669
H    -2.47478  -2.44330   1.32468
H    -1.64554  -1.06876   2.07356
H    -3.30852  -0.87642   1.42080
H    -0.27104  -1.52605  -1.53975
H     1.36960  -2.47571  -0.14396
29

C     4.18194  -0.31272  -0.61324
O     2.83094   0.05837  -0.94643
C     2.05540   0.44276   0.05598
O     2.36678   0.48340   1.23209
C     0.70911   0.82354  -0.40999
C     0.37968   0.91430  -1.79296
N     0.18952   1.09811  -2.92629
N    -0.19189   1.14534   0.50201
N    -1.44563   1.21339   0.19630
C    -2.32488   1.63811   1.08152
N    -3.23073   2.01048   1.73126
C    -1.79522  -1.19805  -0.13967
C    -2.80747  -0.88735  -1.21306
C    -2.33734  -1.35582   1.26824
C    -0.54280  -1.52931  -0.48265
C     0.50898  -2.01578   0.39810
O     0.49897  -2.03078   1.63079
H     4.18306  -1.16353   0.07562
H     4.69376   0.54751  -0.14927
H     4.66469  -0.57543  -1.56067
H     0.13469   1.16225   1.48232
H    -3.21440  -1.86731  -1.42339
H    -2.33528  -0.47786  -2.12058
H    -3.62357  -0.21959  -0.89757
H    -2.47275  -2.44318   1.32029
H    -1.64635  -1.06994   2.07486
H    -3.30895  -0.87804   1.42142
H    -0.27181  -1.52639  -1.53893
H     1.36805  -2.47819  -0.14405
29

C     4.18225  -0.31193  -0.61334
O     2.83071   0.05710  -0.94706
C     2.05351   0.43789   0.05493
O     2.36518   0.48357   1.23008
C     0.70125   0.80424  -0.41082
C     0.38037   0.91345  -1.79408
N     0.19042   1.10044  -2.92666
N    -0.19193   1.14898   0.50205
N    -1.45097   1.19244   0.19809
C    -2.32909   1.63106   1.07808
N    -3.22917   2.01167   1.72925
C    -1.79262  -1.17038  -0.13346
C    -2.80488  -0.88481  -1.21125
C    -2.33605  -1.35481   1.26778
C    -0.53213  -1.50974  -0.48095
C     0.50977  -2.01548   0.39900
O     0.49907  -2.03084   1.63095
H     4.18329  -1.16326   0.07565
H     4.69356   0.54792  -0.14932
H     4.66492  -0.57513  -1.56064
H     0.13365   1.15627   1.48203
H    -3.20952  -1.86839  -1.42116
H    -2.33558  -0.47678  -2.12043
H    -3.62519  -0.22139  -0.89846
H    -2.47073  -2.44305   1.31590
H    -1.64715  -1.07112   2.07616
H    -3.30937  -0.87966   1.42204
H    -0.27258  -1.52673  -1.53812
H     1.36650  -2.48067  -0.14414
29

C     4.18257  -0.31114  -0.61344
O     2.83049   0.05584  -0.94769
C     2.05161   0.43303   0.05388
O     2.36357   0.48373   1.22807
C     0.69340   0.78495  -0.41166
C     0.38106   0.91260  -1.79520
N     0.19133   1.10276  -2.92704
N    -0.19198   1.15262   0.50209
N    -1.45630   1.17149   0.19988
C    -2.33331   1.62401   1.07464
N    -3.22761   2.01286   1.72725
C    -1.79002  -1.14270  -0.12726
C    -2.80228  -0.88228  -1.20944
C    -2.33476  -1.35381   1.26732
C    -0.52146  -1.49017  -0.47925
C     0.51055  -2.01519   0.39991
O     0.49916  -2.03091   1.63111
H     4.18352  -1.16298   0.07567
H     4.69335   0.54832  -0.14938
H     4.66514  -0.57484  -1.56062
H     0.13261   1.15029   1.48173
H    -3.20465  -1.86948  -1.41893
H    -2.33588  -0.47569  -2.12027
H    -3.62682  -0.22319  -0.89935
H    -2.46870  -2.44292   1.31150
H    -1.64796  -1.07230   2.07746
H    -3.30980  -0.88128   1.42267
H    -0.27335  -1.52707  -1.53730
H     1.36495  -2.48315  -0.14423
29

C     4.18288  -0.31035  -0.61355
O     2.83027   0.05457  -0.94832
C     2.04972   0.42816   0.05282
O     2.36197   0.48390   1.22606
C     0.68554   0.76565  -0.41249
C     0.38175   0.91175  -1.79631
N     0.19224   1.10509  -2.92741
N    -0.19202   1.15626   0.50213
N    -1.46164   1.15053   0.20167
C    -2.33752   1.61695   1.07120
N    -3.22606   2.01405   1.72524
C    -1.78742  -1.11503  -0.12106
C    -2.79969  -0.87974  -1.20763
C    -2.33348  -1.35281   1.26685
C    -0.51078  -1.47060  -0.47755
C     0.51134  -2.01490   0.40082
O     0.49925  -2.03098   1.63127
H     4.18374  -1.16271   0.07570
H     4.69314   0.54873  -0.14944
H     4.66537  -0.57454  -1.56060
H     0.13157   1.14431   1.48144
H    -3.19977  -1.87057  -1.41670
H    -2.33617  -0.47461  -2.12012
H    -3.62845  -0.22499  -0.90024
H    -2.46667  -2.44279   1.30711
H    -1.64876  -1.07348   2.07876
H    -3.31023  -0.88291   1.42329
H    -0.27412  -1.52740  -1.53648
H     1.36340  -2.48563  -0.14433
29

C     4.18319  -0.30955  -0.61365
O     2.83005   0.05331  -0.94895
C     2.04783   0.42329   0.05177
O     2.36036   0.48406   1.22405
C     0.67768   0.74635  -0.41333
C     0.38245   0.91090  -1.79743
N     0.19314   1.10741  -2.92778
N    -0.19207   1.15990   0.50217
N    -1.46698   1.12958   0.20346
C    -2.34173   1.60990   1.06776
N    -3.22450   2.01524   1.72324
C    -1.78481  -1.08736  -0.11485
C    -2.79709  -0.87720  -1.20582
C    -2.33219  -1.35181   1.26639
C    -0.50011  -1.45103  -0.47585
C     0.51212  -2.01460   0.40173
O     0.49934  -2.03105   1.63143
H     4.18397  -1.16243   0.07573
H     4.69294   0.54914  -0.14949
H     4.66559  -0.57425  -1.56058
H     0.13053   1.13833   1.48114
H    -3.19490  -1.87165  -1.41447
H    -2.33647  -0.47352  -2.11996
H    -3.63007  -0.22679  -0.90113
H    -2.46465  -2.44266   1.30271
H    -1.64957  -1.07466   2.08006
H    -3.31066  -0.88453   1.42391
H    -0.27489  -1.52774  -1.53566
H     1.36186  -2.48811  -0.14442
29

C     4.18350  -0.30876  -0.61375
O     2.82983   0.05205  -0.94958
C     2.04594   0.41843   0.05072
O     2.35876   0.48423   1.22204
C     0.66982   0.72705  -0.41416
C     0.38314   0.91004  -1.79855
N     0.19405   1.10974  -2.92815
N    -0.19212   1.16354   0.50222
N    -1.47232   1.10863   0.20525
C    -2.34595   1.60285   1.06432
N    -3.22294   2.01643   1.72123
C    -1.78221  -1.05968  -0.10865
C    -2.79450  -0.87466  -1.20401
C    -2.33091  -1.35080   1.26592
C    -0.48944  -1.43145  -0.47415
C     0.51290  -2.01431   0.40264
O     0.49943  -2.03112   1.63159
H     4.18419  -1.16216   0.07575
H     4.69273   0.54955  -0.14955
H     4.66581  -0.57395  -1.56056
H     0.12949   1.13235   1.48085
H    -3.19002  -1.87274  -1.41224
H    -2.33677  -0.47244  -2.11981
H    -3.63170  -0.22858  -0.90201
H    -2.46262  -2.44253   1.29832
H    -1.65037  -1.07583   2.08137
H    -3.31109  -0.88615   1.42453
H    -0.27566  -1.52808  -1.53484
H     1.36031  -2.49059  -0.14451
29

C     4.18381  -0.30797  -0.61385
O     2.82961   0.05078  -0.95021
C     2.04404   0.41356   0.04966
O     2.35715   0.48440   1.22003
C     0.66196   0.70776  -0.41500
C     0.38383   0.90919  -1.79966
N     0.19495   1.11206  -2.92852
N    -0.19216   1.16718   0.50226
N    -1.47766   1.08768   0.20704
C    -2.35016   1.59580   1.06088
N    -3.22138   2.01762   1.71923
C    -1.77961  -1.03201  -0.10245
C    -2.79190  -0.87212  -1.20221
C    -2.32962  -1.34980   1.26546
C    -0.47877  -1.41188  -0.47245
C     0.51369  -2.01402   0.40354
O     0.49952  -2.03119   1.63175
H     4.18442  -1.16189   0.07578
H     4.69253   0.54996  -0.14961
H     4.66604  -0.57366  -1.56053
H     0.12845   1.12637   1.48055
H    -3.18515  -1.87382  -1.41001
H    -2.33706  -0.47135  -2.11966
H    -3.63332  -0.23038  -0.90290
H    -2.46059  -2.44240   1.29392
H    -1.65118  -1.07701   2.08267
H    -3.31151  -0.88777   1.42515
H    -0.27643  -1.52841  -1.53402
H     1.35876  -2.49308  -0.14460
29

C     4.18412  -0.30718  -0.61395
O     2.82939   0.04952  -0.95084
C     2.04215   0.40870   0.04861
O     2.35554   0.48456   1.21802
C     0.65411   0.68846  -0.41583
C     0.38452   0.90834  -1.80078
N     0.19586   1.11439  -2.92890
N    -0.19221   1.17082   0.50230
N    -1.48300   1.06672   0.20883
C    -2.35438   1.58875   1.05744
N    -3.21983   2.01881   1.71722
C    -1.77701  -1.00433  -0.09624
C    -2.78931  -0.86958  -1.20040
C    -2.32833  -1.34880   1.26499
C    -0.46810  -1.39231  -0.47075
C     0.51447  -2.01372   0.40445
O     0.49961  -2.03125   1.63191
H     4.18465  -1.16161   0.07581
H     4.69232   0.55037  -0.14966
H     4.66626  -0.57336  -1.56051
H     0.12741   1.12039   1.48026
H    -3.18028  -1.87491  -1.40778
H    -2.33736  -0.47027  -2.11950
H    -3.63495  -0.23218  -0.90379
H    -2.45857  -2.44227   1.28953
H    -1.65198  -1.07819   2.08397
H    -3.31194  -0.88939   1.42577
H    -0.27720  -1.52875  -1.53320
H     1.35721  -2.49556  -0.14469
29

C     4.18443  -0.30638  -0.61405
O     2.82917   0.04825  -0.95147
C     2.04026   0.40383   0.04756
O     2.35394   0.48473   1.21601
C     0.64625   0.66916  -0.41667
C     0.38521   0.90749  -1.80190
N     0.19677   1.11671  -2.92927
N    -0.19225   1.17446   0.50234
N    -1.48834   1.04577   0.21062
C    -2.35859   1.58169   1.05400
N    -3.21827   2.02000   1.71521
C    -1.77441  -0.97666  -0.09004
C    -2.78671  -0.86705  -1.19859
C    -2.32705  -1.34780   1.26453
C    -0.45743  -1.37274  -0.46905
C     0.51526  -2.01343   0.40536
O     0.49970  -2.03132   1.63207
H     4.18487  -1.16134   0.07583
H     4.69211   0.55078  -0.14972
H     4.66649  -0.57307  -1.56049
H     0.12637   1.11441   1.47997
H    -3.17540  -1.87600  -1.40555
H    -2.33766  -0.46918  -2.11935
H    -3.63658  -0.23398  -0.90468
H    -2.45654  -2.44214   1.28514
H    -1.65279  -1.07937   2.08527
H    -3.31237  -0.89101   1.42640
H    -0.27797  -1.52909  -1.53238
H     1.35566  -2.49804  -0.14478
29

C     4.18474  -0.30559  -0.61415
O     2.82895   0.04699  -0.95210
C     2.03837   0.39896   0.04650
O     2.35233   0.48489   1.21400
C     0.63839   0.64986  -0.41750
C     0.38590   0.90664  -1.80301
N     0.19767   1.11903  -2.92964
N    -0.19230   1.17810   0.50238
N    -1.49368   1.02482   0.21242
C    -2.36280   1.57464   1.05057
N    -3.21671   2.02119   1.71321
C    -1.77181  -0.94899  -0.08384
C    -2.78412  -0.86451  -1.19678
C    -2.32576  -1.34679   1.26406
C    -0.44676  -1.35317  -0.46735
C     0.51604  -2.01314   0.40627
O     0.49980  -2.03139   1.63223
H     4.18510  -1.16106   0.07586
H     4.69191   0.55119  -0.14977
H     4.66671  -0.57277  -1.56047
H     0.12533   1.10844   1.47967
H    -3.17053  -1.87708  -1.40332
H    -2.33795  -0.46810  -2.11919
H    -3.63820  -0.23578  -0.90557
H    -2.45452  -2.44202   1.28074
H    -1.65359  -1.08055   2.08657
H    -3.31280  -0.89263   1.42702
H    -0.27874  -1.52943  -1.53156
H     1.35411  -2.50052  -0.14487
29

C     4.18505  -0.30480  -0.61426
O     2.82872   0.04573  -0.95273
C     2.03647   0.39410   0.04545
O     2.35073   0.48506   1.21199
C     0.63053   0.63057  -0.41833
C     0.38659   0.90579  -1.80413
N     0.19858   1.12136  -2.93001
N    -0.19234   1.18174   0.50243
N    -1.49902   1.00386   0.21421
C    -2.36702   1.56759   1.04713
N    -3.21516   2.02238   1.71120
C    -1.76921  -0.92131  -0.07763
C    -2.78152  -0.86197  -1.19497
C    -2.32448  -1.34579   1.26360
C    -0.43608  -1.33359  -0.46565
C     0.51683  -2.01284   0.40718
O     0.49989  -2.03146   1.63239
H     4.18533  -1.16079   0.07589
H     4.69170   0.55159  -0.14983
H     4.66693  -0.57248  -1.56045
H     0.12429   1.10246   1.47938
H    -3.16565  -1.87817  -1.40109
H    -2.33825  -0.46701  -2.11904
H    -3.63983  -0.23757  -0.90645
H    -2.45249  -2.44189   1.27635
H    -1.65440  -1.08172   2.08787
H    -3.31323  -0.89425   1.42764
H    -0.27951  -1.52976  -1.53075
H     1.35256  -2.50300  -0.14496
29

C     4.18536  -0.30401  -0.61436
O     2.82850   0.04446  -0.95336
C     2.03458   0.38923   0.04440
O     2.34912   0.48522   1.20998
C     0.62267   0.61127  -0.41917
C     0.38728   0.90494  -1.80525
N     0.19948   1.12368  -2.93038
N    -0.19239   1.18538   0.50247
N    -1.50436   0.98291   0.21600
C    -2.37123   1.56054   1.04369
N    -3.21360   2.02357   1.70920
C    -1.76660  -0.89364  -0.07143
C    -2.77893  -0.85943  -1.19316
C    -2.32319  -1.34479   1.26314
C    -0.42541  -1.31402  -0.46396
C     0.51761  -2.01255   0.40809
O     0.49998  -2.03153   1.63255
H     4.18555  -1.16051   0.07591
H     4.69150   0.55200  -0.14989
H     4.66716  -0.57218  -1.56042
H     0.12325   1.09648   1.47908
H    -3.16078  -1.87926  -1.39886
H    -2.33855  -0.46593  -2.11888
H    -3.64145  -0.23937  -0.90734
H    -2.45046  -2.44176   1.27195
H    -1.65520  -1.08290   2.08917
H    -3.31365  -0.89587   1.42826
H    -0.28028  -1.53010  -1.52993
H     1.35102  -2.50548  -0.14506
29

C     4.18567  -0.30321  -0.61446
O     2.82828   0.04320  -0.95399
C     2.03269   0.38436   0.04334
O     2.34752   0.48539   1.20797
C     0.61481   0.59197  -0.42000
C     0.38797   0.90409  -1.80636
N     0.20039   1.12601  -2.93075
N    -0.19243   1.18902   0.50251
N    -1.50970   0.96196   0.21779
C    -2.37544   1.55349   1.04025
N    -3.21204   2.02476   1.70719
C    -1.76400  -0.86596  -0.06523
C    -2.77633  -0.85689  -1.19135
C    -2.32190  -1.34379   1.26267
C    -0.41474  -1.29445  -0.46226
C     0.51840  -2.01226   0.40899
O     0.50007  -2.03160   1.63271
H     4.18578  -1.16024   0.07594
H     4.69129   0.55241  -0.14994
H     4.66738  -0.57189  -1.56040
H     0.12221   1.09050   1.47879
H    -3.15590  -1.88034  -1.39663
H    -2.33884  -0.46484  -2.11873
H    -3.64308  -0.24117  -0.90823
H    -2.44844  -2.44163   1.26756
H    -1.65601  -1.08408   2.09048
H    -3.31408  -0.89749   1.42888
H    -0.28105  -1.53044  -1.52911
H     1.34947  -2.50796  -0.14515
29

C     4.18598  -0.30242  -0.61456
O     2.82806   0.04194  -0.95462
C     2.03080   0.37950   0.04229
O     2.34591   0.48556   1.20596
C     0.60696   0.57267  -0.42084
C     0.38866   0.90324  -1.80748
N     0.20130   1.12833  -2.93113
N    -0.19248   1.19266   0.50255
N    -1.51504   0.94101   0.21958
C    -2.37966   1.54644   1.03681
N    -3.21048   2.02595   1.70519
C    -1.76140  -0.83829  -0.05902
C    -2.77374  -0.85436  -1.18954
C    -2.32062  -1.34278   1.26221
C    -0.40407  -1.27488  -0.46056
C     0.51918  -2.01197   0.40990
O     0.50016  -2.03166   1.63287
H     4.18601  -1.15996   0.07597
H     4.69108   0.55282  -0.15000
H     4.66760  -0.57159  -1.56038
H     0.12117   1.08452   1.47849
H    -3.15103  -1.88143  -1.39441
H    -2.33914  -0.46376  -2.11857
H    -3.64471  -0.24297  -0.90912
H    -2.44641  -2.44150   1.26317
H    -1.65681  -1.08526   2.09178
H    -3.31451  -0.89911   1.42951
H    -0.28182  -1.53077  -1.52829
H     1.34792  -2.51044  -0.14524
29

C     4.18630  -0.30163  -0.61466
O     2.82784   0.04067  -0.95525
C     2.02890   0.37463   0.04124
O     2.34430   0.48572   1.20395
C     0.59910   0.55338  -0.42167
C     0.38935   0.90239  -1.80859
N     0.20220   1.13066  -2.93150
N    -0.19253   1.19630   0.50259
N    -1.52038   0.92005   0.22137
C    -2.38387   1.53938   1.03337
N    -3.20893   2.02714   1.70318
C    -1.75880  -0.81061  -0.05282
C    -2.77114  -0.85182  -1.18773
C    -2.31933  -1.34178   1.26174
C    -0.39340  -1.25530  -0.45886
C     0.51996  -2.01167   0.41081
O     0.50025  -2.03173   1.63303
H     4.18623  -1.15969   0.07599
H     4.69088   0.55323  -0.15005
H     4.66783  -0.57130  -1.56036
H     0.12013   1.07854   1.47820
H    -3.14615  -1.88251  -1.39218
H    -2.33944  -0.46267  -2.11842
H    -3.64633  -0.24477  -0.91001
H    -2.44438  -2.44137   1.25877
H    -1.65762  -1.08644   2.09308
H    -3.31494  -0.90073   1.43013
H    -0.28259  -1.53111  -1.52747
H     1.34637  -2.51292  -0.14533
29

C     4.18661  -0.30084  -0.61476
O     2.82762   0.03941  -0.95588
C     2.02701   0.36977   0.04018
O     2.34270   0.48589   1.20194
C     0.59124   0.53408  -0.42251
C     0.39004   0.90154  -1.80971
N     0.20311   1.13298  -2.93187
N    -0.19257   1.19994   0.50264
N    -1.52572   0.89910   0.22316
C    -2.38809   1.53233   1.02993
N    -3.20737   2.02833   1.70117
C    -1.75620  -0.78294  -0.04662
C    -2.76854  -0.84928  -1.18592
C    -2.31805  -1.34078   1.26128
C    -0.38273  -1.23573  -0.45716
C     0.52075  -2.01138   0.41172
O     0.50034  -2.03180   1.63318
H     4.18646  -1.15942   0.07602
H     4.69067   0.55364  -0.15011
H     4.66805  -0.57100  -1.56034
H     0.11909   1.07256   1.47791
H    -3.14128  -1.88360  -1.38995
H    -2.33973  -0.46158  -2.11826
H    -3.64796  -0.24656  -0.91090
H    -2.44236  -2.44124   1.25438
H    -1.65842  -1.08762   2.09438
H    -3.31537  -0.90235   1.43075
H    -0.28336  -1.53145  -1.52665
H     1.34482  -2.51540  -0.14542
29

C     4.18692  -0.30004  -0.61486
O     2.82740   0.03814  -0.95651
C     2.02512   0.36490   0.03913
O     2.34109   0.48605   1.19993
C     0.58338   0.51478  -0.42334
C     0.39073   0.90069  -1.81083
N     0.20401   1.13531  -2.93224
N    -0.19262   1.20358   0.50268
N    -1.53106   0.87815   0.22495
C    -2.39230   1.52528   1.02649
N    -3.20581   2.02952   1.69917
C    -1.75360  -0.75527  -0.04041
C    -2.76595  -0.84674  -1.18411
C    -2.31676  -1.33978   1.26081
C    -0.37206  -1.21616  -0.45546
C     0.52153  -2.01109   0.41263
O     0.50043  -2.03187   1.63334
H     4.18669  -1.15914   0.07605
H     4.69046   0.55405  -0.15017
H     4.66828  -0.57071  -1.56032
H     0.11805   1.06658   1.47761
H    -3.13641  -1.88469  -1.38772
H    -2.34003  -0.46050  -2.11811
H    -3.64958  -0.24836  -0.91178
H    -2.44033  -2.44111   1.24998
H    -1.65923  -1.08879   2.09568
H    -3.31579  -0.90397   1.43137
H    -0.28413  -1.53178  -1.52583
H     1.34327  -2.51788  -0.14551
29

C     4.18723  -0.29925  -0.61497
O     2.82718   0.03688  -0.95714
C     2.02323   0.36003   0.03808
O     2.33949   0.48622   1.19792
C     0.57552   0.49548  -0.42418
C     0.39142   0.89984  -1.81194
N     0.20492   1.13763  -2.93261
N    -0.19266   1.20722   0.50272
N    -1.53640   0.85719   0.22674
C    -2.39651   1.51823   1.02305
N    -3.20425   2.03071   1.69716
C    -1.75099  -0.72759  -0.03421
C    -2.76335  -0.84420  -1.18230
C    -2.31547  -1.33877   1.26035
C    -0.36138  -1.19659  -0.45376
C     0.52232  -2.01079   0.41353
O     0.50053  -2.03194   1.63350
H     4.18691  -1.15887   0.07608
H     4.69026   0.55446  -0.15022
H     4.66850  -0.57041  -1.56029
H     0.11700   1.06060   1.47732
H    -3.13153  -1.88577  -1.38549
H    -2.34033  -0.45941  -2.11796
H    -3.65121  -0.25016  -0.91267
H    -2.43831  -2.44098   1.24559
H    -1.66003  -1.08997   2.09698
H    -3.31622  -0.90559   1.43199
H    -0.28490  -1.53212  -1.52501
H     1.34173  -2.52036  -0.14560
29

C     4.18754  -0.29846  -0.61507
O     2.82695   0.03562  -0.95777
C     2.02133   0.35517   0.03702
O     2.33788   0.48638   1.19591
C     0.56767   0.47618  -0.42501
C     0.39211   0.89899  -1.81306
N     0.20583   1.13996  -2.93298
N    -0.19271   1.21086   0.50276
N    -1.54174   0.83624   0.22853
C    -2.40073   1.51118   1.01961
N    -3.20270   2.03190   1.69516
C    -1.74839  -0.69992  -0.02800
C    -2.76076  -0.84166  -1.18049
C    -2.31419  -1.33777   1.25988
C    -0.35071  -1.17702  -0.45206
C     0.52310  -2.01050   0.41444
O     0.50062  -2.03201   1.63366
H     4.18714  -1.15859   0.07610
H     4.69005   0.55487  -0.15028
H     4.66872  -0.57012  -1.56027
H     0.11596   1.05463   1.47702
H    -3.12666  -1.88686  -1.38326
H    -2.34062  -0.45833  -2.11780
H    -3.65284  -0.25196  -0.91356
H    -2.43628  -2.44085   1.24120
H    -1.66084  -1.09115   2.09828
H    -3.31665  -0.90721   1.43261
H    -0.28567  -1.53246  -1.52420
H     1.34018  -2.52284  -0.14570
29

C     4.18785  -0.29767  -0.61517
O     2.82673   0.03435  -0.95840
C     2.01944   0.35030   0.03597
O     2.33628   0.48655   1.19390
C     0.55981   0.45689  -0.42585
C     0.39280   0.89814  -1.81418
N     0.20673   1.14228  -2.93336
N    -0.19275   1.21450   0.50280
N    -1.54708   0.81529   0.23032
C    -2.40494   1.50412   1.01617
N    -3.20114   2.03309   1.69315
C    -1.74579  -0.67224  -0.02180
C    -2.75816  -0.83913  -1.17868
C    -2.31290  -1.33677   1.25942
C    -0.34004  -1.15744  -0.45036
C     0.52389  -2.01021   0.41535
O     0.50071  -2.03207   1.63382
H     4.18736  -1.15832   0.07613
H     4.68985   0.55527  -0.15033
H     4.66895  -0.56982  -1.56025
H     0.11492   1.04865   1.47673
H    -3.12178  -1.88794  -1.38103
H    -2.34092  -0.45724  -2.11765
H    -3.65446  -0.25376  -0.91445
H    -2.43425  -2.44073   1.23680
H    -1.66164  -1.09233   2.09958
H    -3.31708  -0.90883   1.43324
H    -0.28644  -1.53280  -1.52338
H     1.33863  -2.52532  -0.14579
29

C     4.18754  -0.29846  -0.61507
O     2.82695   0.03562  -0.95777
C     2.02133   0.35517   0.03702
O     2.33788   0.48638   1.19591
C     0.56767   0.47618  -0.42501
C     0.39211   0.89899  -1.81306
N     0.20583   1.13996  -2.93298
N    -0.19271   1.21086   0.50276
N    -1.54174   0.83624   0.22853
C    -2.40073   1.51118   1.01961
N    -3.20270   2.03190   1.69516
C    -1.74839  -0.69992  -0.02800
C    -2.76076  -0.84166  -1.18049
C    -2.31419  -1.33777   1.25988
C    -0.35071  -1.17702  -0.45206
C     0.52310  -2.01050   0.41444
O     0.50062  -2.03201   1.63366
H     4.18714  -1.15859   0.07610
H     4.69005   0.55487  -0.15028
H     4.66872  -0.57012  -1.56027
H     0.11596   1.05463   1.47702
H    -3.12666  -1.88686  -1.38326
H    -2.34062  -0.45833  -2.11780
H    -3.65284  -0.25196  -0.91356
H    -2.43628  -2.44085   1.24120
H    -1.66084  -1.09115   2.09828
H    -3.31665  -0.90721   1.43261
H    -0.28567  -1.53246  -1.52420
H     1.34018  -2.52284  -0.14570
29

C     4.18723  -0.29925  -0.61497
O     2.82718   0.03688  -0.95714
C     2.02323   0.36003   0.03808
O     2.33949   0.48622   1.19792
C     0.57552   0.49548  -0.42418
C     0.39142   0.89984  -1.81194
N     0.20492   1.13763  -2.93261
N    -0.19266   1.20722   0.50272
N    -1.53640   0.85719   0.22674
C    -2.39651   1.51823   1.02305
N    -3.20425   2.03071   1.69716
C    -1.75099  -0.72759  -0.03421
C    -2.76335  -0.84420  -1.18230
C    -2.31547  -1.33877   1.26035
C    -0.36138  -1.19659  -0.45376
C     0.52232  -2.01079   0.41353
O     0.50053  -2.03194   1.63350
H     4.18691  -1.15887   0.07608
H     4.69026   0.55446  -0.15022
H     4.66850  -0.57041  -1.56029
H     0.11700   1.06060   1.47732
H    -3.13153  -1.88577  -1.38549
H    -2.34033  -0.45941  -2.11796
H    -3.65121  -0.25016  -0.91267
H    -2.43831  -2.44098   1.24559
H    -1.66003  -1.08997   2.09698
H    -3.31622  -0.90559   1.43199
H    -0.28490  -1.53212  -1.52501
H     1.34173  -2.52036  -0.14560
29

C     4.18692  -0.30004  -0.61486
O     2.82740   0.03814  -0.95651
C     2.02512   0.36490   0.03913
O     2.34109   0.48605   1.19993
C     0.58338   0.51478  -0.42334
C     0.39073   0.90069  -1.81083
N     0.20401   1.13531  -2.93224
N    -0.19262   1.20358   0.50268
N    -1.53106   0.87815   0.22495
C    -2.39230   1.52528   1.02649
N    -3.20581   2.02952   1.69917
C    -1.75360  -0.75527  -0.04041
C    -2.76595  -0.84674  -1.18411
C    -2.31676  -1.33978   1.26081
C    -0.37206  -1.21616  -0.45546
C     0.52153  -2.01109   0.41263
O     0.50043  -2.03187   1.63334
H     4.18669  -1.15914   0.07605
H     4.69046   0.55405  -0.15017
H     4.66828  -0.57071  -1.56032
H     0.11805   1.06658   1.47761
H    -3.13641  -1.88469  -1.38772
H    -2.34003  -0.46050  -2.11811
H    -3.64958  -0.24836  -0.91178
H    -2.44033  -2.44111   1.24998
H    -1.65923  -1.08879   2.09568
H    -3.31579  -0.90397   1.43137
H    -0.28413  -1.53178  -1.52583
H     1.34327  -2.51788  -0.14551
29

C     4.18661  -0.30084  -0.61476
O     2.82762   0.03941  -0.95588
C     2.02701   0.36977   0.04018
O     2.34270   0.48589   1.20194
C     0.59124   0.53408  -0.42251
C     0.39004   0.90154  -1.80971
N     0.20311   1.13298  -2.93187
N    -0.19257   1.19994   0.50264
N    -1.52572   0.89910   0.22316
C    -2.38809   1.53233   1.02993
N    -3.20737   2.02833   1.70117
C    -1.75620  -0.78294  -0.04662
C    -2.76854  -0.84928  -1.18592
C    -2.31805  -1.34078   1.26128
C    -0.38273  -1.23573  -0.45716
C     0.52075  -2.01138   0.41172
O     0.50034  -2.03180   1.63318
H     4.18646  -1.15942   0.07602
H     4.69067   0.55364  -0.15011
H     4.66805  -0.57100  -1.56034
H     0.11909   1.07256   1.47791
H    -3.14128  -1.88360  -1.38995
H    -2.33973  -0.46158  -2.11826
H    -3.64796  -0.24656  -0.91090
H    -2.44236  -2.44124   1.25438
H    -1.65842  -1.08762   2.09438
H    -3.31537  -0.90235   1.43075
H    -0.28336  -1.53145  -1.52665
H     1.34482  -2.51540  -0.14542
29

C     4.18630  -0.30163  -0.61466
O     2.82784   0.04067  -0.95525
C     2.02890   0.37463   0.04124
O     2.34430   0.48572   1.20395
C     0.59910   0.55338  -0.42167
C     0.38935   0.90239  -1.80859
N     0.20220   1.13066  -2.93150
N    -0.19253   1.19630   0.50259
N    -1.52038   0.92005   0.22137
C    -2.38387   1.53938   1.03337
N    -3.20893   2.02714   1.70318
C    -1.75880  -0.81061  -0.05282
C    -2.77114  -0.85182  -1.18773
C    -2.31933  -1.34178   1.26174
C    -0.39340  -1.25530  -0.45886
C     0.51996  -2.01167   0.41081
O     0.50025  -2.03173   1.63303
H     4.18623  -1.15969   0.07599
H     4.69088   0.55323  -0.15005
H     4.66783  -0.57130  -1.56036
H     0.12013   1.07854   1.47820
H    -3.14615  -1.88251  -1.39218
H    -2.33944  -0.46267  -2.11842
H    -3.64633  -0.24477  -0.91001
H    -2.44438  -2.44137   1.25877
H    -1.65762  -1.08644   2.09308
H    -3.31494  -0.90073   1.43013
H    -0.28259  -1.53111  -1.52747
H     1.34637  -2.51292  -0.14533
29

C     4.18598  -0.30242  -0.61456
O     2.82806   0.04194  -0.95462
C     2.03080   0.37950   0.04229
O     2.34591   0.48556   1.20596
C     0.60696   0.57267  -0.42084
C     0.38866   0.90324  -1.80748
N     0.20130   1.12833  -2.93113
N    -0.19248   1.19266   0.50255
N    -1.51504   0.94101   0.21958
C    -2.37966   1.54644   1.03681
N    -3.21048   2.02595   1.70519
C    -1.76140  -0.83829  -0.05902
C    -2.77374  -0.85436  -1.18954
C    -2.32062  -1.34278   1.26221
C    -0.40407  -1.27488  -0.46056
C     0.51918  -2.01197   0.40990
O     0.50016  -2.03166   1.63287
H     4.18601  -1.15996   0.07597
H     4.69108   0.55282  -0.15000
H     4.66760  -0.57159  -1.56038
H     0.12117   1.08452   1.47849
H    -3.15103  -1.88143  -1.39441
H    -2.33914  -0.46376  -2.11857
H    -3.64471  -0.24297  -0.90912
H    -2.44641  -2.44150   1.26317
H    -1.65681  -1.08526   2.09178
H    -3.31451  -0.89911   1.42951
H    -0.28182  -1.53077  -1.52829
H     1.34792  -2.51044  -0.14524
29

C     4.18567  -0.30321  -0.61446
O     2.82828   0.04320  -0.95399
C     2.03269   0.38436   0.04334
O     2.34752   0.48539   1.20797
C     0.61481   0.59197  -0.42000
C     0.38797   0.90409  -1.80636
N     0.20039   1.12601  -2.93075
N    -0.19243   1.18902   0.50251
N    -1.50970   0.96196   0.21779
C    -2.37544   1.55349   1.04025
N    -3.21204   2.02476   1.70719
C    -1.76400  -0.86596  -0.06523
C    -2.77633  -0.85689  -1.19135
C    -2.32190  -1.34379   1.26267
C    -0.41474  -1.29445  -0.46226
C     0.51840  -2.01226   0.40899
O     0.50007  -2.03160   1.63271
H     4.18578  -1.16024   0.07594
H     4.69129   0.55241  -0.14994
H     4.66738  -0.57189  -1.56040
H     0.12221   1.09050   1.47879
H    -3.15590  -1.88034  -1.39663
H    -2.33884  -0.46484  -2.11873
H    -3.64308  -0.24117  -0.90823
H    -2.44844  -2.44163   1.26756
H    -1.65601  -1.08408   2.09048
H    -3.31408  -0.89749   1.42888
H    -0.28105  -1.53044  -1.52911
H     1.34947  -2.50796  -0.14515
29

C     4.18536  -0.30401  -0.61436
O     2.82850   0.04446  -0.95336
C     2.03458   0.38923   0.04440
O     2.34912   0.48522   1.20998
C     0.62267   0.61127  -0.41917
C     0.38728   0.90494  -1.80525
N     0.19948   1.12368  -2.93038
N    -0.19239   1.18538   0.50247
N    -1.50436   0.98291   0.21600
C    -2.37123   1.56054   1.04369
N    -3.21360   2.02357   1.70920
C    -1.76660  -0.89364  -0.07143
C    -2.77893  -0.85943  -1.19316
C    -2.32319  -1.34479   1.26314
C    -0.42541  -1.31402  -0.46396
C     0.51761  -2.01255   0.40809
O     0.49998  -2.03153   1.63255
H     4.18555  -1.16051   0.07591
H     4.69150   0.55200  -0.14989
H     4.66716  -0.57218  -1.56042
H     0.12325   1.09648   1.47908
H    -3.16078  -1.87926  -1.39886
H    -2.33855  -0.46593  -2.11888
H    -3.64145  -0.23937  -0.90734
H    -2.45046  -2.44176   1.27195
H    -1.65520  -1.08290   2.08917
H    -3.31365  -0.89587   1.42826
H    -0.28028  -1.53010  -1.52993
H     1.35102  -2.50548  -0.14506
29

C     4.18505  -0.30480  -0.61426
O     2.82872   0.04573  -0.95273
C     2.03647   0.39410   0.04545
O     2.35073   0.48506   1.21199
C     0.63053   0.63057  -0.41833
C     0.38659   0.90579  -1.80413
N     0.19858   1.12136  -2.93001
N    -0.19234   1.18174   0.50243
N    -1.49902   1.00386   0.21421
C    -2.36702   1.56759   1.04713
N    -3.21516   2.02238   1.71120
C    -1.76921  -0.92131  -0.07763
C    -2.78152  -0.86197  -1.19497
C    -2.32448  -1.34579   1.26360
C    -0.43608  -1.33359  -0.46565
C     0.51683  -2.01284   0.40718
O     0.49989  -2.03146   1.63239
H     4.18533  -1.16079   0.07589
H     4.69170   0.55159  -0.14983
H     4.66693  -0.57248  -1.56045
H     0.12429   1.10246   1.47938
H    -3.16565  -1.87817  -1.40109
H    -2.33825  -0.46701  -2.11904
H    -3.63983  -0.23757  -0.90645
H    -2.45249  -2.44189   1.27635
H    -1.65440  -1.08172   2.08787
H    -3.31323  -0.89425   1.42764
H    -0.27951  -1.52976  -1.53075
H     1.35256  -2.50300  -0.14496
29

C     4.18474  -0.30559  -0.61415
O     2.82895   0.04699  -0.95210
C     2.03837   0.39896   0.04650
O     2.35233   0.48489   1.21400
C     0.63839   0.64986  -0.41750
C     0.38590   0.90664  -1.80301
N     0.19767   1.11903  -2.92964
N    -0.19230   1.17810   0.50238
N    -1.49368   1.02482   0.21242
C    -2.36280   1.57464   1.05057
N    -3.21671   2.02119   1.71321
C    -1.77181  -0.94899  -0.08384
C    -2.78412  -0.86451  -1.19678
C    -2.32576  -1.34679   1.26406
C    -0.44676  -1.35317  -0.46735
C     0.51604  -2.01314   0.40627
O     0.49980  -2.03139   1.63223
H     4.18510  -1.16106   0.07586
H     4.69191   0.55119  -0.14977
H     4.66671  -0.57277  -1.56047
H     0.12533   1.10844   1.47967
H    -3.17053  -1.87708  -1.40332
H    -2.33795  -0.46810  -2.11919
H    -3.63820  -0.23578  -0.90557
H    -2.45452  -2.44202   1.28074
H    -1.65359  -1.08055   2.08657
H    -3.31280  -0.89263   1.42702
H    -0.27874  -1.52943  -1.53156
H     1.35411  -2.50052  -0.14487
29

C     4.18443  -0.30638  -0.61405
O     2.82917   0.04825  -0.95147
C     2.04026   0.40383   0.04756
O     2.35394   0.48473   1.21601
C     0.64625   0.66916  -0.41667
C     0.38521   0.90749  -1.80190
N     0.19677   1.11671  -2.92927
N    -0.19225   1.17446   0.50234
N    -1.48834   1.04577   0.21062
C    -2.35859   1.58169   1.05400
N    -3.21827   2.02000   1.71521
C    -1.77441  -0.97666  -0.09004
C    -2.78671  -0.86705  -1.19859
C    -2.32705  -1.34780   1.26453
C    -0.45743  -1.37274  -0.46905
C     0.51526  -2.01343   0.40536
O     0.49970  -2.03132   1.63207
H     4.18487  -1.16134   0.07583
H     4.69211   0.55078  -0.14972
H     4.66649  -0.57307  -1.56049
H     0.12637   1.11441   1.47997
H    -3.17540  -1.87600  -1.40555
H    -2.33766  -0.46918  -2.11935
H    -3.63658  -0.23398  -0.90468
H    -2.45654  -2.44214   1.28514
H    -1.65279  -1.07937   2.08527
H    -3.31237  -0.89101   1.42640
H    -0.27797  -1.52909  -1.53238
H     1.35566  -2.49804  -0.14478
29

C     4.18412  -0.30718  -0.61395
O     2.82939   0.04952  -0.95084
C     2.04215   0.40870   0.04861
O     2.35554   0.48456   1.21802
C     0.65411   0.68846  -0.41583
C     0.38452   0.90834  -1.80078
N     0.19586   1.11439  -2.92890
N    -0.19221   1.17082   0.50230
N    -1.48300   1.06672   0.20883
C    -2.35438   1.58875   1.05744
N    -3.21983   2.01881   1.71722
C    -1.77701  -1.00433  -0.09624
C    -2.78931  -0.86958  -1.20040
C    -2.32833  -1.34880   1.26499
C    -0.46810  -1.39231  -0.47075
C     0.51447  -2.01372   0.40445
O     0.49961  -2.03125   1.63191
H     4.18465  -1.16161   0.07581
H     4.69232   0.55037  -0.14966
H     4.66626  -0.57336  -1.56051
H     0.12741   1.12039   1.48026
H    -3.18028  -1.87491  -1.40778
H    -2.33736  -0.47027  -2.11950
H    -3.63495  -0.23218  -0.90379
H    -2.45857  -2.44227   1.28953
H    -1.65198  -1.07819   2.08397
H    -3.31194  -0.88939   1.42577
H    -0.27720  -1.52875  -1.53320
H     1.35721  -2.49556  -0.14469
29

C     4.18381  -0.30797  -0.61385
O     2.82961   0.05078  -0.95021
C     2.04404   0.41356   0.04966
O     2.35715   0.48440   1.22003
C     0.66196   0.70776  -0.41500
C     0.38383   0.90919  -1.79966
N     0.19495   1.11206  -2.92852
N    -0.19216   1.16718   0.50226
N    -1.47766   1.08768   0.20704
C    -2.35016   1.59580   1.06088
N    -3.22138   2.01762   1.71923
C    -1.77961  -1.03201  -0.10245
C    -2.79190  -0.87212  -1.20221
C    -2.32962  -1.34980   1.26546
C    -0.47877  -1.41188  -0.47245
C     0.51369  -2.01402   0.40354
O     0.49952  -2.03119   1.63175
H     4.18442  -1.16189   0.07578
H     4.69253   0.54996  -0.14961
H     4.66604  -0.57366  -1.56053
H     0.12845   1.12637   1.48055
H    -3.18515  -1.87382  -1.41001
H    -2.33706  -0.47135  -2.11966
H    -3.63332  -0.23038  -0.90290
H    -2.46059  -2.44240   1.29392
H    -1.65118  -1.07701   2.08267
H    -3.31151  -0.88777   1.42515
H    -0.27643  -1.52841  -1.53402
H     1.35876  -2.49308  -0.14460
29

C     4.18350  -0.30876  -0.61375
O     2.82983   0.05205  -0.94958
C     2.04594   0.41843   0.05072
O     2.35876   0.48423   1.22204
C     0.66982   0.72705  -0.41416
C     0.38314   0.91004  -1.79855
N     0.19405   1.10974  -2.92815
N    -0.19212   1.16354   0.50222
N    -1.47232   1.10863   0.20525
C    -2.34595   1.60285   1.06432
N    -3.22294   2.01643   1.72123
C    -1.78221  -1.05968  -0.10865
C    -2.79450  -0.87466  -1.20401
C    -2.33091  -1.35080   1.26592
C    -0.48944  -1.43145  -0.47415
C     0.51290  -2.01431   0.40264
O     0.49943  -2.03112   1.63159
H     4.18419  -1.16216   0.07575
H     4.69273   0.54955  -0.14955
H     4.66581  -0.57395  -1.56056
H     0.12949   1.13235   1.48085
H    -3.19002  -1.87274  -1.41224
H    -2.33677  -0.47244  -2.11981
H    -3.63170  -0.22858  -0.90201
H    -2.46262  -2.44253   1.29832
H    -1.65037  -1.07583   2.08137
H    -3.31109  -0.88615   1.42453
H    -0.27566  -1.52808  -1.53484
H     1.36031  -2.49059  -0.14451
29

C     4.18319  -0.30955  -0.61365
O     2.83005   0.05331  -0.94895
C     2.04783   0.42329   0.05177
O     2.36036   0.48406   1.22405
C     0.67768   0.74635  -0.41333
C     0.38245   0.91090  -1.79743
N     0.19314   1.10741  -2.92778
N    -0.19207   1.15990   0.50217
N    -1.46698   1.12958   0.20346
C    -2.34173   1.60990   1.06776
N    -3.22450   2.01524   1.72324
C    -1.78481  -1.08736  -0.11485
C    -2.79709  -0.87720  -1.20582
C    -2.33219  -1.35181   1.26639
C    -0.50011  -1.45103  -0.47585
C     0.51212  -2.01460   0.40173
O     0.49934  -2.03105   1.63143
H     4.18397  -1.16243   0.07573
H     4.69294   0.54914  -0.14949
H     4.66559  -0.57425  -1.56058
H     0.13053   1.13833   1.48114
H    -3.19490  -1.87165  -1.41447
H    -2.33647  -0.47352  -2.11996
H    -3.63007  -0.22679  -0.90113
H    -2.46465  -2.44266   1.30271
H    -1.64957  -1.07466   2.08006
H    -3.31066  -0.88453   1.42391
H    -0.27489  -1.52774  -1.53566
H     1.36186  -2.48811  -0.14442
29

C     4.18288  -0.31035  -0.61355
O     2.83027   0.05457  -0.94832
C     2.04972   0.42816   0.05282
O     2.36197   0.48390   1.22606
C     0.68554   0.76565  -0.41249
C     0.38175   0.91175  -1.79631
N     0.19224   1.10509  -2.92741
N    -0.19202   1.15626   0.50213
N    -1.46164   1.15053   0.20167
C    -2.33752   1.61695   1.07120
N    -3.22606   2.01405   1.72524
C    -1.78742  -1.11503  -0.12106
C    -2.79969  -0.87974  -1.20763
C    -2.33348  -1.35281   1.26685
C    -0.51078  -1.47060  -0.47755
C     0.51134  -2.01490   0.40082
O     0.49925  -2.03098   1.63127
H     4.18374  -1.16271   0.07570
H     4.69314   0.54873  -0.14944
H     4.66537  -0.57454  -1.56060
H     0.13157   1.14431   1.48144
H    -3.19977  -1.87057  -1.41670
H    -2.33617  -0.47461  -2.12012
H    -3.62845  -0.22499  -0.90024
H    -2.46667  -2.44279   1.30711
H    -1.64876  -1.07348   2.07876
H    -3.31023  -0.88291   1.42329
H    -0.27412  -1.52740  -1.53648
H     1.36340  -2.48563  -0.14433
29

C     4.18257  -0.31114  -0.61344
O     2.83049   0.05584  -0.94769
C     2.05161   0.43303   0.05388
O     2.36357   0.48373   1.22807
C     0.69340   0.78495  -0.41166
C     0.38106   0.91260  -1.79520
N     0.19133   1.10276  -2.92704
N    -0.19198   1.15262   0.50209
N    -1.45630   1.17149   0.19988
C    -2.33331   1.62401   1.07464
N    -3.22761   2.01286   1.72725
C    -1.79002  -1.14270  -0.12726
C    -2.80228  -0.88228  -1.20944
C    -2.33476  -1.35381   1.26732
C    -0.52146  -1.49017  -0.47925
C     0.51055  -2.01519   0.39991
O     0.49916  -2.03091   1.63111
H     4.18352  -1.16298   0.07567
H     4.69335   0.54832  -0.14938
H     4.66514  -0.57484  -1.56062
H     0.13261   1.15029   1.48173
H    -3.20465  -1.86948  -1.41893
H    -2.33588  -0.47569  -2.12027
H    -3.62682  -0.22319  -0.89935
H    -2.46870  -2.44292   1.31150
H    -1.64796  -1.07230   2.07746
H    -3.30980  -0.88128   1.42267
H    -0.27335  -1.52707  -1.53730
H     1.36495  -2.48315  -0.14423
29

C     4.18225  -0.31193  -0.61334
O     2.83071   0.05710  -0.94706
C     2.05351   0.43789   0.05493
O     2.36518   0.48357   1.23008
C     0.70125   0.80424  -0.41082
C     0.38037   0.91345  -1.79408
N     0.19042   1.10044  -2.92666
N    -0.19193   1.14898   0.50205
N    -1.45097   1.19244   0.19809
C    -2.32909   1.63106   1.07808
N    -3.22917   2.01167   1.72925
C    -1.79262  -1.17038  -0.13346
C    -2.80488  -0.88481  -1.21125
C    -2.33605  -1.35481   1.26778
C    -0.53213  -1.50974  -0.48095
C     0.50977  -2.01548   0.39900
O     0.49907  -2.03084   1.63095
H     4.18329  -1.16326   0.07565
H     4.69356   0.54792  -0.14932
H     4.66492  -0.57513  -1.56064
H     0.13365   1.15627   1.48203
H    -3.20952  -1.86839  -1.42116
H    -2.33558  -0.47678  -2.12043
H    -3.62519  -0.22139  -0.89846
H    -2.47073  -2.44305   1.31590
H    -1.64715  -1.07112   2.07616
H    -3.30937  -0.87966   1.42204
H    -0.27258  -1.52673  -1.53812
H     1.36650  -2.48067  -0.14414
29

C     4.18194  -0.31272  -0.61324
O     2.83094   0.05837  -0.94643
C     2.05540   0.44276   0.05598
O     2.36678   0.48340   1.23209
C     0.70911   0.82354  -0.40999
C     0.37968   0.91430  -1.79296
N     0.18952   1.09811  -2.92629
N    -0.19189   1.14534   0.50201
N    -1.44563   1.21339   0.19630
C    -2.32488   1.63811   1.08152
N    -3.23073   2.01048   1.73126
C    -1.79522  -1.19805  -0.13967
C    -2.80747  -0.88735  -1.21306
C    -2.33734  -1.35582   1.26824
C    -0.54280  -1.52931  -0.48265
C     0.50898  -2.01578   0.39810
O     0.49897  -2.03078   1.63079
H     4.18306  -1.16353   0.07562
H     4.69376   0.54751  -0.14927
H     4.66469  -0.57543  -1.56067
H     0.13469   1.16225   1.48232
H    -3.21440  -1.86731  -1.42339
H    -2.33528  -0.47786  -2.12058
H    -3.62357  -0.21959  -0.89757
H    -2.47275  -2.44318   1.32029
H    -1.64635  -1.06994   2.07486
H    -3.30895  -0.87804   1.42142
H    -0.27181  -1.52639  -1.53893
H     1.36805  -2.47819  -0.14405
