12

O 0.024100981 -1.829304777 0.644704596
C 1.404894513 -0.887214302 -1.316566068
C 3.788758224 -1.543551958 -1.664981752
C -2.089684357 -0.503979375 1.415742958
C -2.233052776 2.241803777 1.480588060
O -3.532360675 0.763872861 -0.388903350
H 0.374388647 0.336856041 -2.597881318
H 4.756267462 -2.796003417 -0.370230210
H 4.793543841 -0.846427096 -3.299392177
H -3.132352898 -1.659893816 2.748393733
H -3.440470399 3.198060149 2.834438802
H -0.643284958 3.328486967 0.768570493

