12

O 2.091435227 0.934510689 1.867488470
C 2.984077408 0.439909628 -0.291381218
C 2.016248826 -1.430461638 -1.812652473
C -1.451301991 -0.673888317 1.025176744
C -2.964571164 1.562937921 0.981237021
O -3.288530806 -0.642233798 -0.675432658
H 4.586583095 1.596346389 -0.938211094
H 1.397291540 -3.169459806 -0.926050158
H 2.485930049 -1.556986248 -3.800798161
H -1.121433005 -2.216601066 2.311881341
H -4.477639402 1.842532955 2.333251290
H -2.206158213 3.215220128 0.044392445

