10

C 1.302610006 -2.524988402 -1.712276797
N -0.281318577 -0.297469783 -1.576060501
C -2.899568686 -0.880672581 -1.031819282
H -3.757840547 -2.229755469 -2.367039517
H -3.041629849 -1.702761365 0.857899491
H -4.020278984 0.849444668 -1.045025747
H -0.159924839 0.688508618 -3.205752600
H 0.643372207 -3.946334171 -3.085091131
H 3.229482969 -1.987462212 -2.210636505
H 1.368655159 -3.435942785 0.140320272

