11

C -2.664899094 -0.803377453 -0.073489824
C -0.101957093 1.794777327 -1.378797943
O -0.172114215 0.637413655 1.620474242
C 2.020062350 0.842499168 0.122975779
C 3.255376922 -1.531330683 -0.550177623
N 4.224093789 -3.395452965 -1.080499893
H -3.411258332 -1.394540949 1.751675319
H -4.065513453 0.245011723 -1.133091066
H -1.884774230 -2.360412172 -1.145454183
H -0.319992616 3.826104220 -1.046216085
H 3.299434167 2.196018812 0.987028937

