10

N 3.972816226 0.543018622 -1.767818135
C 1.847447773 0.288658387 -0.763495123
N 0.094145929 2.216097757 -0.064502967
C -1.799938906 1.099061199 0.879566146
C -1.509570355 -1.712115018 0.908311677
O 0.897341231 -2.033467613 -0.184089485
H 4.320756663 2.407240720 -2.043779452
H -1.547924898 -2.494112337 2.822546359
H -3.442255491 2.108163668 1.579167059
H -2.954030914 -2.667814828 -0.222670889

