10

N 3.287623964 -0.172067708 -0.492541713
C 1.131581364 0.338908340 -1.610758556
N -0.336599265 2.361293106 -0.882408578
C -1.968150118 1.159158798 0.540919023
C -1.459331116 -1.502369156 0.526341751
O -0.192708393 -1.842122544 -1.792332815
H 4.119122281 1.450251096 0.115820955
H 1.561159821 -1.130031391 1.351351826
H -3.330314862 2.145965353 1.703226030
H -2.789132486 -2.967197543 1.040855253

