13

C -3.469746093 -0.741500526 -1.248797995
N -1.874122788 0.483406456 0.674160192
C -1.153723360 0.571498061 -2.007857591
C 0.501565193 -0.710545772 -0.194478613
C 2.841148124 0.543151432 0.810296307
O 3.257361871 -0.078842605 3.369064868
H -3.511336489 -2.797639844 -1.299167114
H -5.272367862 0.189323856 -1.530248588
H 1.775613293 0.413248484 4.294828789
H -0.892423805 2.303761320 -3.053184485
H 0.535473305 -2.771657849 -0.201271101
H 4.499349085 -0.110530799 -0.227040597
H 2.686199444 2.595075868 0.549900665

