13

C -3.361133649 -0.755418585 -0.619854698
N -1.967029718 0.755926185 1.139096370
C -1.088780390 0.634738502 -1.525960838
C 1.138433492 -0.657120853 -0.711685844
C 3.263075647 0.589936119 0.593413234
O 2.256688242 -0.016350288 2.954341774
H -3.285651619 -2.809979208 -0.530096769
H -5.180368114 0.023934855 -1.161608602
H -0.215815171 0.262255644 2.514727264
H -1.108013777 2.341320912 -2.655460139
H 1.048995967 -2.688374368 -0.454301348
H 5.104932779 -0.294470920 0.255310976
H 3.386342048 2.620480609 0.190432256

