12

O 1.429749117 -1.831082934 -3.277763543
C 1.204438016 0.399868089 -1.831665669
H 1.364236035 1.950864755 -3.174455580
C -1.229511507 0.488980222 -0.266815288
H -2.799788917 -0.542012608 -1.112364040
H -1.892010142 2.431839889 0.031232222
C -0.563607396 -0.461749098 2.340218861
O 1.878117953 -0.368859214 2.505011332
C 3.172291088 0.600093850 0.240244151
H 3.725952836 2.541038866 0.655912146
H 4.836932009 -0.563340831 -0.078448786
H 1.058001646 -3.267645062 -2.233102023

