14

O 2.104227614 -1.212520582 -3.288688088
C 0.942771665 0.469137739 -1.569684659
C -1.822875665 -0.227783146 -0.975285158
C -1.835907367 -1.109182459 1.756316109
O 0.548949641 -1.211139552 2.541240538
C 2.147694282 0.410910987 1.044766968
H 1.929151613 -2.907564476 -2.663388825
H 1.117669616 2.330019272 -2.430924959
H -2.384092897 -1.824808457 -2.159939273
H -3.160854144 1.287423071 -1.342874231
H -3.235085099 0.221268032 3.269798442
H -2.755600411 1.832338600 3.022451869
H 2.118402658 2.271798870 1.951749733
H 4.060491562 -0.347307908 1.042136318

