14

C -4.043705711 1.651817013 0.631496677
C -2.093711591 0.173062536 -0.774211496
C 0.274268916 -0.172283269 -0.022426306
C 2.379621749 -1.632987291 -1.269641712
N 4.150211488 -1.687525391 0.830212074
N 3.445995750 0.016635127 2.623005510
N 1.273247952 0.836450382 2.268663626
H -5.660378921 0.455748651 1.104093710
H -3.274181927 2.436524936 2.369243146
H -4.761482520 3.199252037 -0.533675930
H 1.818811544 -3.531632053 -1.838446346
H -2.666938883 -0.685081259 -2.548892757
H 3.155306173 -0.642673575 -2.915092238
H 6.029547105 -1.739919579 0.552941272

