14

C -4.030850887 1.306776796 0.591796479
C -2.006158368 0.212628336 -1.044361584
C 0.500200187 0.055744464 -0.216919167
C 2.638424598 -1.245009396 -1.327725184
N 4.511419239 -0.950435732 0.459187045
N 3.702537769 0.260427560 2.458320092
N 1.380291545 0.878156297 2.187898848
H -5.879943176 0.541636836 0.092810629
H -3.684036840 0.891880660 2.584211870
H -4.152294420 3.370957561 0.436558822
H 0.126721897 -2.220600294 -0.245557948
H -2.401916964 -0.342413971 -2.971967552
H 2.963829786 -1.894521078 -3.224330007
H 6.282268608 -1.629947269 0.434845030

