15

O 4.769242303 0.896149948 0.295342934
C 2.328848625 0.926014953 1.346681991
C 0.332638758 1.773673338 -0.505742017
C -1.729097533 -0.515794094 0.093894482
O -3.527631333 0.133175217 1.903434897
C -2.499425680 -1.790965957 -2.067501014
C 0.791424746 -1.421697013 1.199360662
H 5.887540215 0.074499032 1.459981012
H 2.284926363 1.902706256 3.164130230
H -0.718679531 3.465074595 -0.000791852
H 1.001793689 1.772421205 -2.441390962
H -5.021494776 0.643276020 1.000862904
H -4.164721089 -2.984586274 -2.049952129
H -1.339311738 -1.774427811 -3.745358302
H 1.613686630 -3.089254443 0.320541884

