9

C -4.023432937 -0.485363305 0.270077976
C -1.587162358 -0.747198239 0.090290150
C 0.816193122 -1.063728895 -0.109971157
C 3.176662572 -2.103783283 -0.945362271
O 4.445414242 -3.570177383 -2.059999821
N 3.231782104 0.156827729 0.359379592
H 3.749264196 1.831044327 -0.417212524
H -5.022111563 -1.023714965 1.976857447
H -5.126268978 0.274469869 -1.281149634

