10

O 4.245215031 -1.866739269 0.326401754
C 2.392218852 -0.613762315 0.280664807
O 2.237190785 1.945713702 -0.064997489
C -0.395925515 2.337950661 0.450284640
C -1.645457159 0.496280650 -1.284673028
C -0.358350541 -1.097141313 0.742191296
H -0.645736141 0.570101383 2.432451083
H -3.694107663 0.449940332 -1.201843989
H -0.861774771 0.337664692 -3.170105430
H -1.221142874 -2.780719085 1.525251472

