14

C 2.496711844 -0.789414210 -1.411655821
C 0.360159614 -0.175663309 0.361130688
C -0.920436406 -2.075405511 1.950524529
C -2.395538817 -0.005979207 -0.465965663
O -2.697798527 2.430872009 0.538850982
C -0.074410007 2.528662823 1.316096736
H 2.171328066 -2.588854190 -2.365536354
H 4.265058724 -0.950186610 -0.360468943
H 2.748489825 0.675954354 -2.842221923
H -0.809324705 -3.858396144 0.863605557
H -3.467866061 -1.431124195 0.864011602
H -2.941313265 -0.366483960 -2.414047815
H 0.115852381 2.807626575 3.348111622
H 0.927127661 3.998713902 0.265726126

