8

C -1.339220200 -1.056385665 -0.469713595
N -2.064940246 2.161677367 -0.472361781
N -0.057715562 3.065487414 -0.039637591
N 2.058290810 2.032102721 0.119185556
C 1.474588387 -0.629761001 0.402195797
N -0.529404109 -1.707887682 1.757126178
H -2.716422307 -2.076439702 -1.596100196
H 3.175150168 -1.763590194 0.295237052

