15

C 4.679766038 -0.815666607 0.530277597
C 2.034918167 -1.062705722 -0.580575606
C 0.054453025 -0.763414338 1.448014454
H -0.064630618 -2.351278351 2.772754117
C -0.971645414 1.749297420 2.126021278
H -1.464350399 2.678814603 3.872519163
N -2.437265746 0.206580797 0.806397103
C -4.527916321 -0.547527244 -0.197321252
H -6.198085636 0.614393068 -0.022901685
H -4.526110159 -2.282558347 -1.268331074
H 1.721671004 0.396677853 -2.007006761
H 1.823753064 -2.901112252 -1.507054430
H 4.923470052 1.040033997 1.398888396
H 5.020793857 -2.245744215 1.980957340
H 6.124813036 -1.042973447 -0.922270933

