13

C 0.776069153 2.532577958 0.314812669
C 2.935284585 0.736265871 0.780934423
C 0.115397071 -2.818015438 -0.656368194
C -1.800027307 -1.564747032 1.001134873
C -1.163987691 0.691015850 -0.757841346
N 0.394958713 -1.089936997 -2.346556927
H 1.113520552 4.023218661 -1.078176683
H 0.101985968 3.370569354 2.080233421
H 4.382696556 1.014232981 -0.687788443
H 1.033664203 -4.655712622 -0.641247267
H -1.382752951 -1.389218838 3.006328404
H -3.709881018 -2.290304883 0.722435778
H -2.728194715 1.607036986 -1.737078640

