17

C 2.863241592 2.657797201 -1.213722354
O 2.517525628 0.955037178 0.548916968
C 0.987167813 -0.942197925 0.389790501
C 0.296573731 -2.653498868 2.536462762
O -2.233053230 -2.800736463 1.545356873
C -1.733779802 -1.046457044 -0.489977147
C -3.307768218 1.335177017 -0.277150181
H 3.495181485 -0.454098107 -3.380168634
H 1.360643949 3.037937135 -2.542602180
H 4.304297035 4.025584882 -0.766904964
H 2.870857019 -1.668113501 -2.773229439
H 0.359238486 -1.802351292 4.424379512
H 1.207618142 -4.507503707 2.584148243
H -2.048984513 -1.961959999 -2.318843092
H -3.015677030 2.580196221 -1.894963312
H -5.299362486 0.804681497 -0.234774131
H -2.873743613 2.374493845 1.450357317

