12

C -0.704196368 -0.986245551 1.539782578
H -1.935672510 -2.137096395 0.381387456
H -0.715378596 -1.357144705 3.550115257
C -0.468163736 1.768358181 0.772828084
C -1.834237624 2.627021480 -1.504898479
O -2.343665911 1.274243667 -3.264131551
H -2.373947071 4.649345964 -1.534467156
H -0.201598477 3.136307131 2.268747019
C 1.677061940 -0.066839613 0.402579827
O 3.780818521 0.351490212 1.919050838
H 4.506281602 -1.253413424 2.349469373
H 2.062879821 -0.582679797 -1.547491697

