16

C -4.484653498 0.590064866 0.858193495
C -1.050842305 -0.818538405 -0.296169708
O -2.071662890 1.872273824 -0.958440990
C 0.979936738 -0.505451056 1.589446413
C 3.356189804 -2.017476203 1.337870179
C 3.462652590 0.766612699 0.857860109
H -5.401553376 2.447377161 1.017975716
H -4.100824497 -0.194928840 2.710229618
H -5.581972615 -0.679319654 -0.300538736
H -0.293084258 -1.525866257 -2.084311337
H -1.027113694 3.126558922 -0.117217066
H 0.397432307 -0.150913717 3.532816912
H 4.216694321 -2.740705987 3.045830256
H 3.500709539 -3.267666926 -0.274993380
H 3.665525555 1.381734729 -1.084923667
H 4.407119226 1.947809994 2.236313707

