15

C 3.575179620 -0.086738165 1.514292761
C 1.041594212 0.119985420 0.269497981
C -0.072161554 -1.914374578 -1.074548050
C -1.482858471 0.157715560 1.952374060
O -3.036965192 -2.214965206 0.985038564
C -2.093797516 2.464631948 0.307837406
O 0.432430791 2.548789994 -0.712692841
H 5.094921142 0.234971608 0.155092620
H 3.799709376 -1.958206341 2.347633391
H 3.700191126 1.314326100 3.017322887
H -1.018834766 -1.583952337 -2.857828151
H 0.477218321 -3.842241310 -0.680996163
H -4.376186053 -1.602471559 -0.082295381
H -3.516415298 2.203957948 -1.198970263
H -2.542363621 4.200345185 1.331705269

