15

C 0.838718412 2.772979674 0.042677594
C 2.537606651 0.583875125 -0.909796870
C 0.330207795 -3.761580183 -0.097751375
O -1.203304917 -4.767042416 1.232859383
C -3.423401070 0.870419456 1.660764696
C -1.286243636 0.884351140 0.379320227
C 0.146629500 -1.109897985 -1.092325724
H 1.467778041 3.769582058 1.732021469
H 0.436810024 4.158427224 -1.432828596
H 3.841141735 -0.078234303 0.543948197
H 2.052442788 -4.798919790 -0.711748942
H -4.032305693 2.522662829 2.708221897
H -4.603651121 -0.798224265 1.727503285
H 3.585369194 0.901896643 -2.651116698
H -0.514946325 -1.255139066 -3.051601461

