14

O -2.776602015 0.075097300 3.809160690
C -2.871056252 2.058359445 2.387840186
C -0.409978766 2.455573413 1.035717031
O 1.477605789 0.608542211 1.647384320
C 2.934329196 -0.365859822 -0.273161499
N 2.231735694 -1.587098693 -2.167188167
C -0.388088160 -2.230949568 -2.607065311
H -1.115405875 -0.757326188 3.698337380
H -1.593973517 -2.139139945 -0.930534951
H -0.805379429 2.507936590 -0.990940198
H 0.275098903 4.331690033 1.580713592
H 4.934802626 -0.023941262 0.056683242
H -1.175203745 -0.988237001 -4.055883560
H -0.459301903 -4.146707369 -3.359339109

