15

O 4.473499106 0.526763009 0.161888661
C 2.422271752 -0.961120508 -0.675700621
C 0.021922637 0.154137363 0.469089588
C -0.540508423 2.828811916 -0.430063078
C -4.493474003 -1.638221227 -1.027506946
C -2.133847918 -1.570894651 -0.017707490
O -2.240677254 -3.941460548 0.234882980
H 6.000109820 -0.115516482 -0.568064920
H 2.617183566 -2.930552182 -0.071122564
H 2.267995116 -0.933472946 -2.745055418
H 0.276472015 0.138458816 2.527062263
H -2.240372971 3.571778983 0.470409505
H 1.033881711 4.072235095 0.023743766
H -0.832574780 2.863472555 -2.472414766
H -6.120416513 -1.587758472 0.228384646

