14

O 3.459414204 -0.433698703 1.968586304
C 1.913492284 -0.480120128 -0.131989055
C -1.180919411 3.077402459 -0.402467199
N -0.666294056 0.462209209 0.173334297
C -1.783406542 -1.525883491 -1.408372138
C 0.706740053 -2.949329653 -1.104694529
O 1.386440563 -5.074549479 -1.348229072
H 2.572298508 -1.228480699 3.340903734
H 2.968685683 0.468361231 -1.652818077
H -0.020189645 4.278960683 0.803731418
H -0.777878849 3.545810952 -2.390817979
H -3.159599857 3.510765282 -0.020102888
H -2.100529893 -0.976931318 -3.388146774
H -3.486699468 -2.413254168 -0.658312911

