13

N -1.633714363 -2.226205297 -2.175388162
C -1.847802002 0.060237004 -1.264480832
O -4.187034106 0.657509191 -1.384949663
C 0.129519448 1.778870482 -0.222554690
C 2.460605225 0.396702628 0.735467858
O 1.938179364 -1.187244267 2.811126612
H -4.038964426 -1.605225475 -2.360075933
H 0.003199042 -3.131154396 -2.539118564
H -0.735813886 2.880506262 1.289540736
H 0.642594018 3.103459117 -1.724833177
H 3.351081289 -0.661060478 -0.813919801
H 3.844047926 1.771989856 1.398599571
H 0.739824641 -2.452180920 2.301111395

