19

C -4.480855583 -2.334453080 -0.363322467
C -2.357758090 -0.447580688 -0.855083554
C -3.206203508 2.262210929 -0.272767623
C -0.174765519 -0.970839937 0.891360872
O 1.900332194 -0.809675684 -0.395662144
C 4.229488844 -1.081051599 0.998000744
C 5.373102094 1.492599972 1.446730971
H -6.113432595 -1.911867724 -1.554039843
H -3.881671050 -4.266488888 -0.767789280
H -5.071080433 -2.257819999 1.612285190
H -1.759466056 -0.548525020 -2.839166104
H -3.721788069 2.453564332 1.716354637
H -4.850907063 2.744909682 -1.421029769
H -1.714066652 3.626232102 -0.683762382
H 3.784126940 -2.053051620 2.759065810
H 5.441148240 -2.264546725 -0.176723030
H 4.128006242 2.629480071 2.634126359
H 5.673856429 2.484830814 -0.335207103
H 7.190890294 1.302107339 2.401387350

