19

C -3.610849089 -1.928876148 -1.144040404
C -1.582351531 -0.117718807 -0.135849123
C -2.757177671 2.062471980 1.328095004
C 0.018847391 -1.772575690 1.576391430
O 2.033064383 -2.894319556 0.185144689
C 3.351752274 -0.893470770 1.295703530
C 4.363857140 1.124403258 -0.423044635
H -4.880417801 -0.914355324 -2.415352123
H -2.764844082 -3.492671702 -2.187668169
H -4.725804888 -2.714468576 0.403834492
H -0.538208135 0.595176122 -1.775270667
H -3.741473743 1.356483282 2.998628073
H -4.113060342 3.090362730 0.160689819
H -1.325676457 3.411884304 1.960158560
H 1.760759460 -0.161773936 2.792026602
H 4.703972674 -1.601443680 2.685808252
H 2.886089836 2.028395720 -1.530979175
H 5.712403648 0.279536603 -1.734915735
H 5.344024519 2.564223406 0.680107765

