8

N -3.122857610 -0.252551409 -1.232068552
C -1.787281445 0.104177389 0.894375249
C -1.292623389 1.015415231 3.088641680
H -1.115499965 2.593959739 4.342775733
N 0.655471405 -0.726479848 1.735646889
H 0.495520299 -2.483364066 2.513774729
H -2.202210159 -1.088855072 -2.667007159
H -4.410252070 1.058732346 -1.710048678

