11

N -3.699851429 -0.988038429 0.250652139
C -1.247283474 -0.197458465 -0.142250495
C -0.953284022 2.380088719 0.785353888
O 3.784265854 2.485438154 0.979838189
C 4.947373084 0.653619719 0.642422582
O 6.227295945 -1.087913686 0.373823260
N 0.574594850 -1.482444243 -1.068823257
H -4.487031057 -2.189642120 -0.989300293
H -4.858840700 0.105509721 1.284781347
H -0.441365927 3.621652597 -0.797450365
H 0.116957871 -3.339483322 -1.250361120

