13

O -1.338764965 2.509082615 1.205644323
C -1.362119806 -0.057190218 1.446370222
C -2.426379790 -1.397494780 -1.662058176
C 0.176441687 -1.253983063 -0.638354738
O 1.749142406 0.386422083 -2.042110351
C 3.954550492 0.978615744 -0.958975764
O 4.717233128 0.184118983 1.008413834
H -2.294079327 3.177842026 2.591515964
H -3.436604303 -0.967116439 0.712937334
H -3.291729659 -3.240683810 -1.878411597
H -2.940185722 0.062278211 -2.998973703
H 1.133163253 -2.999186751 -0.151052442
H 4.976766999 2.299116543 -2.190390130

