10

N 2.413211064 -0.267368883 0.848004640
C 1.850783310 -2.734464184 1.317071249
O 3.461476991 -4.356805362 1.479011480
C -0.876940031 -3.360171023 1.690376365
C -2.611507112 -1.786069922 2.571765681
H -4.538981140 -2.399323051 2.883263392
H -2.174142605 0.153195373 3.070890840
H -1.321472308 -5.321132263 1.299934778
H 4.227685459 0.149408305 0.475526430
H 1.075662346 0.948556097 0.282515832

