14

O -4.732659586 1.669881775 0.778192109
C -2.660503100 0.784860235 -0.306950709
C -1.209975084 -1.303929451 1.003345853
C 1.252031675 -2.084335885 -0.295954449
C 3.142601260 -0.069111593 -0.341996644
C 4.663580818 1.606857235 -0.365592558
H -2.480876525 3.084447868 0.399109496
H -0.836314661 2.709565190 -0.277026026
H -2.645618105 0.588340472 -2.389509986
H -2.532904616 -2.894010283 1.004460376
H -0.902843604 -0.776889861 2.971354600
H 2.049281125 -3.724670468 0.669207257
H 0.865261959 -2.680261698 -2.237736557
H 6.022228006 3.089987808 -0.393661718

