12

C 3.938216323 -0.433860463 0.389646333
O 1.342002368 -0.474050932 1.147376110
C -0.326736330 -0.019808090 -0.653766929
O 0.132339713 0.335070004 -2.844419259
C -2.986117991 0.021003115 0.514157251
O -3.620690329 1.977689493 1.921560243
H 4.286799513 -1.866057002 -1.047953310
H 4.427386727 1.420010697 -0.359926271
H 5.017374908 -0.833185029 2.088933683
H -4.241496277 0.089197001 -1.767264426
H -3.627661775 -1.886871863 1.076794689
H -4.558911099 1.423511131 -0.581106827

