14

C 4.376413614 -0.557587598 -0.447830944
C 1.668099196 -0.091929053 0.351578292
O 1.491864944 -0.607757332 2.961893441
H -0.160605915 -0.105621064 3.524096544
C 0.836339133 2.606777241 -0.185151284
H 1.976631265 4.023532847 0.776160049
C -0.505281642 3.387483291 -2.512072010
H -1.030463007 2.000073242 -3.935102830
H -0.258119109 5.275254853 -3.270846031
C -1.919547231 3.120266531 -0.099303558
H 0.425785059 -1.371190643 -0.716915208
H 4.610114759 -0.195954111 -2.463812997
H 4.900089264 -2.511618533 -0.056389106
H 5.645569477 0.681394763 0.604832206

