15

O -2.663882100 1.830229061 1.556068275
C -2.868027210 -0.442424438 0.175356701
C -0.264454642 -1.582837739 -0.092194144
C 2.598863635 -0.520752225 3.197298873
C 3.229361062 0.997134455 1.023801741
O 4.848426779 2.611015349 1.158850376
C 1.741836990 0.143083013 -1.255275523
H -4.261623977 2.680347681 1.562959804
H -4.131670894 -1.782771991 1.124514695
H -3.623149770 -0.092130706 -1.726595252
H -0.391498719 -3.416939378 -1.026238241
H 1.345617943 0.454539510 4.527554949
H 0.457934781 -2.185885893 1.861989575
H 0.931293506 1.773561296 -2.218555912
H 2.974563450 -0.844861515 -2.578910187

