9

C 0.883209198 2.094500646 -0.193383743
O 0.702433499 3.080855196 2.073334542
H -0.161176083 4.676767157 1.932242203
C 2.192595970 -0.418727423 0.057860768
C 4.520968063 -0.460549066 1.723330410
O 6.486528046 -1.375603966 1.069867803
H 4.319213343 0.427303605 3.604028330
H 2.650547229 -1.189599225 -1.792318151
H 0.780166722 -1.662362913 0.942801012

