16

C 2.484185511 1.429894153 -0.014159019
C -0.138173543 -0.082789450 0.327864119
C 0.217817033 -2.429892356 1.912580529
C -1.210768958 2.066830331 1.382771414
N -3.459836539 0.015989067 -2.611162086
C -1.083168980 -0.621583986 -2.434271551
O 0.485217928 -1.550501142 -3.894295233
H 3.180714485 0.150935903 -1.524069751
H 3.648115603 1.423240636 1.676949860
H 2.360344501 3.305479552 -0.852329051
H 0.922103220 -2.000458444 3.805089105
H 1.540655046 -3.695295942 0.969977749
H -1.590026616 -3.404986596 2.073228169
H -1.478448795 2.307478298 3.410599215
H -1.764846257 3.596235610 0.143600043
H -4.084468143 -0.389549995 -4.387277782

