14

C -2.107209281 -1.953671093 -1.215258739
C -2.970391275 0.802388371 -1.106776875
C -0.662597902 -0.028644903 0.106898424
C 1.084576486 0.426700480 2.009334733
C 3.195346124 0.607715909 -0.749097659
O 1.889724273 1.444752824 -2.651846510
H -1.380843477 -2.591184034 -3.014783171
H -3.033237235 -3.379104056 -0.070834645
H -4.497737886 1.337015267 0.151906447
H -2.779531657 1.894373963 -2.820825008
H 1.743752586 -1.157182126 3.125576944
H 0.992366506 2.246641835 2.944562876
H 4.792766558 1.761475212 -0.047257912
H 3.716409285 -1.414739665 -0.717782667

