17

C 4.462350138 -0.112833563 -0.086743701
C 2.126257720 1.410054883 0.638385598
C -0.011791759 -0.267633634 1.533997465
O -2.193960371 1.106619291 2.446202224
C -3.943910446 -0.259356539 1.003870195
C -3.132586827 -0.100346498 -1.702820702
C -1.282002788 -1.923741138 -0.524111610
H 4.060707237 -1.406775282 -1.641781755
H 5.137806455 -1.241511532 1.503619286
H 5.996544247 1.133164992 -0.670762634
H 1.494431381 2.562180461 -0.955014747
H 2.567225481 2.724321438 2.170366101
H 0.650813608 -1.459719096 3.091196382
H -5.916260972 -0.162608363 1.572743521
H -4.383586409 -0.943993467 -3.093381775
H -2.497383509 1.782829987 -2.213012684
H -3.402629559 -2.466006175 1.334298049

