17

C 3.883968447 0.587681921 0.475756183
C 1.532295086 -0.993009448 0.359926970
O 2.138608819 -3.351296302 -0.609312860
C -1.050192825 0.026675317 0.153539794
C -1.592299768 2.821257944 0.264639476
C -3.107658637 -1.484189462 -1.107023201
O -0.071035221 -1.036195075 2.478431162
H 3.491128420 2.498211474 1.117140228
H 4.753641650 0.666439527 -1.390328636
H 5.218248638 -0.294061359 1.775232664
H -0.241549064 3.815763904 1.452195794
H -3.475812586 3.137285480 1.048813211
H -1.546084342 3.645868398 -1.626658182
H -4.830770028 -1.408192803 0.025806913
H -2.601094136 -3.459588153 -1.376846574
H -3.526937407 -0.685660460 -2.962497567
H 0.917316449 -4.540853783 0.010124567

