12

O 0.066089883 3.011176402 -1.563544958
C 0.599206227 1.724456782 0.443898651
N 2.643667057 0.003387107 0.574427004
C 1.029152501 -1.964619580 -0.587725612
C -1.727524053 -0.855086143 -0.155360583
O -2.218393849 -1.231773547 2.508640664
C -1.645174815 1.233918934 1.882910317
H 4.047459255 0.568525201 -0.589839308
H 1.182767374 -3.770008872 0.380796463
H 1.355111417 -2.168258036 -2.609693958
H -1.769668838 1.438459469 -1.889299594
H -3.157213643 2.610749540 1.845980458

