19

C 3.724392112 -1.385974575 -0.854950687
O 2.401495177 -1.067741842 1.461480415
C 1.010621676 1.013241441 1.746638632
C 1.221421495 3.293757618 0.336242144
C -2.490677816 1.940166165 0.031750082
C -2.633015087 -0.565068230 0.902901750
C -2.554362437 -2.800132714 -0.837128453
H 5.104716424 0.117118422 -1.129249687
H 2.410918297 -1.425842373 -2.446798281
H 4.674379563 -3.201526889 -0.709592935
H 0.432149959 1.210828503 3.697865176
H 1.571533567 4.991914704 1.424416612
H 1.926121475 3.261922121 -1.578039743
H -2.484926775 2.286757923 -1.986701748
H -3.314611710 3.460514497 1.122783007
H -3.366615083 -0.882590067 2.787888291
H -4.357540957 -3.817489866 -0.864026512
H -2.169934790 -2.223716509 -2.786708119
H -1.105528447 -4.183454076 -0.309701130

