11

C -4.275516752 0.327022189 -0.328396493
C -2.300485915 -1.495945410 0.690604759
N -0.463391951 -0.577681755 2.511241060
C -0.514062406 1.680642423 3.246997139
H -1.883192132 3.094750863 2.610129407
H 0.893415817 2.301844193 4.613710756
H -1.205499343 -2.292439347 -0.871873147
H -3.226403339 -3.115134375 1.582959305
H -5.480098500 -0.661062443 -1.678505748
H -3.416696265 1.926533001 -1.310630155
H -5.491869075 1.065988006 1.166829424

