18

C -4.372666533 0.691929759 -0.141008661
C -2.459349162 -1.452458050 -0.102103017
N -0.055764155 -1.027061368 1.171656842
C 0.528031866 1.301610832 2.006543362
C 2.111652310 0.262059282 -1.198252489
O 1.092138924 0.642601199 -3.209841495
C 4.496212348 -1.201519428 -0.672646653
H -6.103482980 0.035839147 -1.048778837
H -3.685119313 2.308475488 -1.223297313
H -4.875722323 1.325396210 1.761292740
H -2.015072906 -1.964719736 -2.061109752
H -3.292191319 -3.119701767 0.785585776
H -0.790990695 2.883921961 1.887267421
H 1.916436515 1.440120066 3.523070158
H 2.329581631 2.250578814 0.152127602
H 4.228701036 -3.112925474 -1.386732771
H 4.918553665 -1.286925242 1.335642759
H 6.051680560 -0.308186420 -1.688543576

