14

C -4.084868198 -0.559093011 0.791418680
C -0.927169443 -1.211690350 -0.016961086
O -1.049598865 1.197484939 -0.699058392
C 2.795509707 1.944774413 -1.306377780
C 3.850264369 0.204482011 0.262965500
O 0.334954031 -1.854201069 1.882226557
H -4.576616585 -2.509286270 1.213469149
H -5.179462935 0.202484702 -0.757006995
H -4.050431190 0.614995437 2.464672747
H -1.108786278 -2.563721532 -1.607659934
H 2.691460234 1.609679787 -3.321445640
H 2.487547900 3.864139626 -0.679633538
H 4.277155371 0.648038470 2.209272614
H 4.540043752 -1.588088985 -0.435879995

