16

C 3.699279692 -0.047539254 0.341468843
C 1.449040216 -0.004928689 -0.979007239
C -0.073203549 2.095126750 -1.138625186
C -2.848801004 1.467491199 -1.071674835
C -2.201832724 -0.581642394 0.775174255
C -0.347565704 -2.234920468 -0.585253189
H 4.687050271 1.704110044 0.737967569
H 1.738962829 -0.237874397 2.967266386
H 4.800316903 -1.767986850 0.479770736
H 0.635905804 4.008054214 -0.934263513
H -3.989965887 2.991077010 -0.287623327
H -3.700566369 0.841005415 -2.858394105
H 0.071616595 -0.085758644 3.053733545
H -3.482114501 -1.176841608 2.259709877
H -1.111483692 -3.033428229 -2.333891907
H 0.486104399 -3.728915171 0.555840471

