16

C 3.589646267 -0.446465371 0.182976134
C 1.122399638 0.972243663 0.169601994
C -0.986114801 0.039971922 -1.428580057
O -0.872028690 -2.584422008 -1.947703640
C -3.616804504 0.483914376 -0.186045616
C -3.305725424 0.267007265 2.608521118
N -1.231709277 0.473134793 3.535586683
H 4.500837849 -0.488445335 -1.684614079
H 4.949379652 0.439181479 1.457304536
H 3.345641164 -2.404754690 0.790890918
H 1.329337839 3.020270463 0.094734597
H 0.655319792 0.605849843 3.776236427
H -1.052937028 1.114621658 -3.209758480
H 0.715323945 -2.962497152 -2.735719604
H -4.992764400 -0.840956207 -0.953385538
H -4.309455515 2.396192115 -0.553114012

