10

C -2.322104816 0.597266045 4.655385831
C -0.789138348 -0.412157583 2.773509440
H 0.061591371 -2.260911686 2.694415596
C -1.927469870 0.868151936 0.736671538
N -1.995433265 0.164860614 -1.719856848
H -3.534563945 0.527820027 -2.765782822
H -0.886574781 -1.252259709 -2.316939212
C -3.356800337 2.972798805 1.776140319
H -4.407162463 4.384502662 0.728677524
N -3.120256421 2.969859222 4.251214496

