14

O -4.928655063 2.767608052 -1.871648608
C -3.868847822 0.928006762 -0.494380624
N -1.658304084 1.072070317 0.343673001
C -0.686300340 -1.017607125 1.803367946
C 1.768179545 -2.040850036 0.661768615
C 3.849341899 -0.230504333 0.735000907
C 5.554703697 1.252437740 0.832698122
H -5.172968192 -0.650718083 -0.218812144
H -3.680962407 4.089263739 -2.037003517
H -2.048097533 -2.580480266 1.942961675
H -0.298552369 -0.354803053 3.720730900
H 2.326599397 -3.741988844 1.692870992
H 1.424437172 -2.605610619 -1.295532150
H 7.065761985 2.576523784 0.913305902

