12

C 5.198945766 -0.234864933 0.120878146
C 3.038503165 0.064320306 -0.480138326
C 0.400405527 0.385754858 -1.210457568
C -1.547395491 -1.403616718 0.010176496
C -2.779261823 1.035770227 0.964013093
O -0.784423179 2.553017027 -0.081973636
H 7.122001708 -0.485361623 0.655341505
H 0.275999754 0.476777769 -3.273935261
H -2.650562744 -2.532224314 -1.305832518
H -0.761500480 -2.607413172 1.477694870
H -2.907839242 1.253139773 3.012389228
H -4.604872961 1.494700799 0.111843951

