13

N 5.596245547 -0.404775330 2.667365810
C 4.113554411 -0.137661238 1.109096552
C 2.198798561 0.215579937 -0.855554360
C -0.343017341 0.946426678 0.227463764
C -2.085629213 -1.062018145 1.188662904
C -2.691936710 0.313791196 -1.216542430
H 2.046868020 -1.548558938 -1.919075763
H 2.881019342 1.655400482 -2.169003363
H -0.340068140 2.719816482 1.250503095
H -3.201180994 -0.653094659 2.851073362
H -1.463704415 -3.006775457 1.048377970
H -2.487825463 -0.705604346 -2.979483087
H -4.223123566 1.667473319 -1.202884472

