13

N 2.696845935 -3.469356242 -1.592266886
C 1.942208260 -1.371249678 -1.116258652
C 2.168297909 1.407598069 -0.619437881
C -0.587772666 1.752927414 0.087225393
C -1.477718870 0.230851041 2.292098630
C -1.646186669 -0.864465193 -0.312317040
H 2.669330842 2.357490448 -2.382097479
H 3.582386714 1.855068245 0.815538748
H -1.576997710 3.456299350 -0.454289310
H -3.217303665 0.856443495 3.174088501
H -0.101267570 -0.518174525 3.618025324
H 0.306899592 -3.162363487 -1.024068401
H -3.456868989 -1.209906600 -1.211083994

