24

C    -1.33033   2.64377  -0.73910
C    -0.47592   1.38329  -0.54568
C     0.79929   1.07984  -0.52778
C     2.24617   1.47690  -0.62116
C     0.72563  -0.89049  -0.17937
C     1.11176  -0.90563   1.22633
N     1.49040  -0.80353   2.32065
C     1.66412  -1.61836  -1.00941
N     2.44425  -2.10457  -1.72170
N    -0.63591  -1.17536  -0.47086
C    -1.45433  -0.01744  -0.18497
C    -2.82531  -0.15394  -0.86232
C    -1.63165   0.19053   1.26892
N    -1.78741   0.51539   2.37346
H    -2.05124   2.71198   0.13058
H    -2.00941   2.47888  -1.62822
H    -0.87860   3.62799  -0.85782
H     2.74282   0.87477  -1.43870
H     2.51363   2.51874  -0.77675
H     2.77749   1.13651   0.32038
H    -0.77275  -1.48422  -1.44396
H    -2.67896  -0.29462  -1.94178
H    -3.46532  -1.03018  -0.50470
H    -3.40389   0.73910  -0.67187
24

C    -1.33730   2.64518  -0.73946
C    -0.46392   1.40748  -0.54928
C     0.80410   1.10138  -0.53053
C     2.25204   1.47312  -0.62050
C     0.72308  -0.90883  -0.17430
C     1.11024  -0.90706   1.22656
N     1.49059  -0.80205   2.32032
C     1.66272  -1.62287  -1.00877
N     2.44497  -2.10402  -1.72248
N    -0.63453  -1.16936  -0.47470
C    -1.46412  -0.03755  -0.17795
C    -2.82856  -0.15879  -0.86206
C    -1.63062   0.18854   1.26868
N    -1.78652   0.51697   2.37227
H    -2.05292   2.71021   0.13078
H    -2.01096   2.47724  -1.62816
H    -0.88447   3.63022  -0.85815
H     2.74282   0.87222  -1.43833
H     2.51910   2.51670  -0.77662
H     2.77778   1.13402   0.32077
H    -0.77270  -1.48336  -1.44478
H    -2.67876  -0.29540  -1.94156
H    -3.46899  -1.03026  -0.50643
H    -3.40285   0.73874  -0.67140
24

C    -1.34426   2.64658  -0.73982
C    -0.45192   1.43167  -0.55288
C     0.80892   1.12292  -0.53328
C     2.25790   1.46934  -0.61984
C     0.72054  -0.92717  -0.16923
C     1.10872  -0.90850   1.22679
N     1.49078  -0.80057   2.31999
C     1.66132  -1.62738  -1.00814
N     2.44569  -2.10347  -1.72326
N    -0.63315  -1.16337  -0.47853
C    -1.47390  -0.05766  -0.17092
C    -2.83182  -0.16363  -0.86180
C    -1.62960   0.18654   1.26843
N    -1.78563   0.51856   2.37108
H    -2.05460   2.70843   0.13099
H    -2.01251   2.47560  -1.62811
H    -0.89033   3.63246  -0.85848
H     2.74283   0.86967  -1.43796
H     2.52457   2.51466  -0.77650
H     2.77806   1.13154   0.32115
H    -0.77265  -1.48251  -1.44560
H    -2.67856  -0.29617  -1.94134
H    -3.47267  -1.03035  -0.50815
H    -3.40180   0.73838  -0.67092
24

C    -1.35122   2.64798  -0.74017
C    -0.43992   1.45587  -0.55648
C     0.81373   1.14446  -0.53603
C     2.26376   1.46556  -0.61918
C     0.71799  -0.94551  -0.16415
C     1.10720  -0.90993   1.22702
N     1.49097  -0.79909   2.31966
C     1.65992  -1.63190  -1.00751
N     2.44640  -2.10293  -1.72404
N    -0.63178  -1.15737  -0.48237
C    -1.48368  -0.07777  -0.16389
C    -2.83508  -0.16848  -0.86155
C    -1.62858   0.18455   1.26819
N    -1.78474   0.52014   2.36989
H    -2.05628   2.70666   0.13119
H    -2.01406   2.47396  -1.62806
H    -0.89620   3.63469  -0.85881
H     2.74283   0.86712  -1.43758
H     2.53004   2.51261  -0.77637
H     2.77835   1.12906   0.32153
H    -0.77259  -1.48165  -1.44643
H    -2.67835  -0.29694  -1.94112
H    -3.47634  -1.03043  -0.50987
H    -3.40075   0.73802  -0.67045
24

C    -1.35819   2.64939  -0.74053
C    -0.42792   1.48006  -0.56008
C     0.81855   1.16600  -0.53878
C     2.26962   1.46178  -0.61852
C     0.71544  -0.96385  -0.15908
C     1.10568  -0.91136   1.22725
N     1.49116  -0.79761   2.31933
C     1.65852  -1.63641  -1.00688
N     2.44712  -2.10238  -1.72482
N    -0.63040  -1.15138  -0.48620
C    -1.49346  -0.09788  -0.15687
C    -2.83834  -0.17332  -0.86129
C    -1.62755   0.18256   1.26794
N    -1.78385   0.52172   2.36869
H    -2.05796   2.70488   0.13140
H    -2.01561   2.47231  -1.62801
H    -0.90207   3.63693  -0.85914
H     2.74284   0.86457  -1.43721
H     2.53552   2.51057  -0.77625
H     2.77863   1.12658   0.32191
H    -0.77254  -1.48079  -1.44725
H    -2.67815  -0.29772  -1.94090
H    -3.48002  -1.03051  -0.51160
H    -3.39970   0.73766  -0.66997
24

C    -1.36515   2.65079  -0.74089
C    -0.41592   1.50426  -0.56367
C     0.82336   1.18754  -0.54153
C     2.27549   1.45800  -0.61786
C     0.71290  -0.98219  -0.15401
C     1.10416  -0.91279   1.22749
N     1.49135  -0.79613   2.31900
C     1.65712  -1.64092  -1.00624
N     2.44784  -2.10183  -1.72560
N    -0.62902  -1.14539  -0.49004
C    -1.50325  -0.11799  -0.14984
C    -2.84160  -0.17817  -0.86104
C    -1.62653   0.18057   1.26770
N    -1.78296   0.52330   2.36750
H    -2.05964   2.70311   0.13160
H    -2.01717   2.47067  -1.62795
H    -0.90794   3.63916  -0.85947
H     2.74284   0.86202  -1.43684
H     2.54099   2.50852  -0.77612
H     2.77891   1.12409   0.32229
H    -0.77249  -1.47993  -1.44807
H    -2.67795  -0.29849  -1.94068
H    -3.48369  -1.03060  -0.51332
H    -3.39866   0.73730  -0.66950
24

C    -1.37211   2.65220  -0.74125
C    -0.40392   1.52845  -0.56727
C     0.82818   1.20908  -0.54427
C     2.28135   1.45422  -0.61720
C     0.71035  -1.00053  -0.14894
C     1.10264  -0.91422   1.22772
N     1.49154  -0.79465   2.31868
C     1.65571  -1.64544  -1.00561
N     2.44856  -2.10128  -1.72637
N    -0.62765  -1.13939  -0.49388
C    -1.51303  -0.13810  -0.14282
C    -2.84486  -0.18301  -0.86078
C    -1.62551   0.17857   1.26745
N    -1.78208   0.52489   2.36631
H    -2.06132   2.70133   0.13181
H    -2.01872   2.46903  -1.62790
H    -0.91381   3.64139  -0.85980
H     2.74285   0.85947  -1.43647
H     2.54646   2.50648  -0.77599
H     2.77920   1.12161   0.32267
H    -0.77243  -1.47907  -1.44889
H    -2.67775  -0.29926  -1.94045
H    -3.48736  -1.03068  -0.51504
H    -3.39761   0.73695  -0.66902
24

C    -1.37907   2.65360  -0.74161
C    -0.39191   1.55264  -0.57087
C     0.83299   1.23062  -0.54702
C     2.28721   1.45044  -0.61654
C     0.70780  -1.01887  -0.14387
C     1.10112  -0.91565   1.22795
N     1.49173  -0.79317   2.31835
C     1.65431  -1.64995  -1.00498
N     2.44927  -2.10074  -1.72715
N    -0.62627  -1.13340  -0.49771
C    -1.52281  -0.15821  -0.13579
C    -2.84812  -0.18785  -0.86052
C    -1.62448   0.17658   1.26721
N    -1.78119   0.52647   2.36512
H    -2.06300   2.69956   0.13201
H    -2.02027   2.46738  -1.62785
H    -0.91968   3.64363  -0.86013
H     2.74285   0.85692  -1.43609
H     2.55193   2.50444  -0.77587
H     2.77948   1.11913   0.32305
H    -0.77238  -1.47821  -1.44972
H    -2.67755  -0.30004  -1.94023
H    -3.49104  -1.03076  -0.51676
H    -3.39656   0.73659  -0.66854
24

C    -1.38604   2.65501  -0.74197
C    -0.37991   1.57684  -0.57447
C     0.83781   1.25216  -0.54977
C     2.29308   1.44666  -0.61588
C     0.70526  -1.03721  -0.13879
C     1.09960  -0.91708   1.22818
N     1.49192  -0.79170   2.31802
C     1.65291  -1.65446  -1.00435
N     2.44999  -2.10019  -1.72793
N    -0.62489  -1.12741  -0.50155
C    -1.53260  -0.17832  -0.12877
C    -2.85137  -0.19270  -0.86027
C    -1.62346   0.17459   1.26696
N    -1.78030   0.52805   2.36392
H    -2.06468   2.69778   0.13221
H    -2.02182   2.46574  -1.62780
H    -0.92555   3.64586  -0.86046
H     2.74286   0.85437  -1.43572
H     2.55740   2.50239  -0.77574
H     2.77977   1.11664   0.32343
H    -0.77233  -1.47735  -1.45054
H    -2.67735  -0.30081  -1.94001
H    -3.49471  -1.03084  -0.51849
H    -3.39551   0.73623  -0.66807
24

C    -1.39300   2.65641  -0.74233
C    -0.36791   1.60103  -0.57806
C     0.84262   1.27370  -0.55252
C     2.29894   1.44288  -0.61522
C     0.70271  -1.05555  -0.13372
C     1.09808  -0.91851   1.22841
N     1.49210  -0.79022   2.31769
C     1.65151  -1.65898  -1.00372
N     2.45071  -2.09964  -1.72871
N    -0.62352  -1.12141  -0.50538
C    -1.54238  -0.19843  -0.12174
C    -2.85463  -0.19754  -0.86001
C    -1.62244   0.17260   1.26672
N    -1.77941   0.52963   2.36273
H    -2.06636   2.69601   0.13242
H    -2.02337   2.46410  -1.62775
H    -0.93141   3.64810  -0.86079
H     2.74286   0.85182  -1.43535
H     2.56287   2.50035  -0.77562
H     2.78005   1.11416   0.32381
H    -0.77228  -1.47650  -1.45136
H    -2.67715  -0.30159  -1.93979
H    -3.49839  -1.03093  -0.52021
H    -3.39446   0.73587  -0.66759
24

C    -1.39996   2.65781  -0.74269
C    -0.35591   1.62522  -0.58166
C     0.84743   1.29524  -0.55527
C     2.30480   1.43910  -0.61456
C     0.70016  -1.07389  -0.12865
C     1.09656  -0.91994   1.22864
N     1.49229  -0.78874   2.31736
C     1.65011  -1.66349  -1.00308
N     2.45142  -2.09910  -1.72949
N    -0.62214  -1.11542  -0.50922
C    -1.55216  -0.21854  -0.11472
C    -2.85789  -0.20239  -0.85975
C    -1.62141   0.17060   1.26648
N    -1.77852   0.53122   2.36154
H    -2.06804   2.69423   0.13262
H    -2.02492   2.46246  -1.62769
H    -0.93728   3.65033  -0.86112
H     2.74287   0.84927  -1.43498
H     2.56834   2.49830  -0.77549
H     2.78033   1.11168   0.32419
H    -0.77222  -1.47564  -1.45218
H    -2.67694  -0.30236  -1.93957
H    -3.50206  -1.03101  -0.52193
H    -3.39342   0.73551  -0.66712
24

C    -1.40692   2.65922  -0.74305
C    -0.34391   1.64942  -0.58526
C     0.85225   1.31679  -0.55802
C     2.31066   1.43532  -0.61390
C     0.69761  -1.09223  -0.12358
C     1.09504  -0.92138   1.22887
N     1.49248  -0.78726   2.31703
C     1.64871  -1.66800  -1.00245
N     2.45214  -2.09855  -1.73027
N    -0.62076  -1.10943  -0.51306
C    -1.56194  -0.23865  -0.10769
C    -2.86115  -0.20723  -0.85950
C    -1.62039   0.16861   1.26623
N    -1.77763   0.53280   2.36035
H    -2.06972   2.69246   0.13283
H    -2.02647   2.46081  -1.62764
H    -0.94315   3.65256  -0.86145
H     2.74287   0.84672  -1.43460
H     2.57381   2.49626  -0.77536
H     2.78062   1.10920   0.32457
H    -0.77217  -1.47478  -1.45301
H    -2.67674  -0.30313  -1.93935
H    -3.50573  -1.03109  -0.52365
H    -3.39237   0.73515  -0.66664
24

C    -1.41389   2.66062  -0.74340
C    -0.33191   1.67361  -0.58886
C     0.85706   1.33833  -0.56077
C     2.31653   1.43154  -0.61324
C     0.69507  -1.11056  -0.11850
C     1.09352  -0.92281   1.22910
N     1.49267  -0.78578   2.31670
C     1.64731  -1.67251  -1.00182
N     2.45286  -2.09800  -1.73104
N    -0.61939  -1.10343  -0.51689
C    -1.57173  -0.25876  -0.10067
C    -2.86441  -0.21208  -0.85924
C    -1.61936   0.16662   1.26599
N    -1.77674   0.53438   2.35916
H    -2.07140   2.69068   0.13303
H    -2.02803   2.45917  -1.62759
H    -0.94902   3.65480  -0.86178
H     2.74288   0.84417  -1.43423
H     2.57928   2.49421  -0.77524
H     2.78090   1.10671   0.32496
H    -0.77212  -1.47392  -1.45383
H    -2.67654  -0.30391  -1.93912
H    -3.50941  -1.03118  -0.52538
H    -3.39132   0.73479  -0.66617
24

C    -1.42085   2.66203  -0.74376
C    -0.31991   1.69781  -0.59245
C     0.86188   1.35987  -0.56351
C     2.32239   1.42776  -0.61258
C     0.69252  -1.12890  -0.11343
C     1.09200  -0.92424   1.22933
N     1.49286  -0.78430   2.31637
C     1.64591  -1.67703  -1.00119
N     2.45357  -2.09745  -1.73182
N    -0.61801  -1.09744  -0.52073
C    -1.58151  -0.27887  -0.09364
C    -2.86767  -0.21692  -0.85899
C    -1.61834   0.16462   1.26574
N    -1.77586   0.53596   2.35796
H    -2.07308   2.68891   0.13324
H    -2.02958   2.45753  -1.62754
H    -0.95489   3.65703  -0.86211
H     2.74288   0.84162  -1.43386
H     2.58475   2.49217  -0.77511
H     2.78119   1.10423   0.32534
H    -0.77207  -1.47306  -1.45465
H    -2.67634  -0.30468  -1.93890
H    -3.51308  -1.03126  -0.52710
H    -3.39027   0.73443  -0.66569
24

C    -1.42781   2.66343  -0.74412
C    -0.30790   1.72200  -0.59605
C     0.86669   1.38141  -0.56626
C     2.32825   1.42398  -0.61192
C     0.68997  -1.14724  -0.10836
C     1.09048  -0.92567   1.22956
N     1.49305  -0.78282   2.31604
C     1.64451  -1.68154  -1.00055
N     2.45429  -2.09691  -1.73260
N    -0.61663  -1.09145  -0.52457
C    -1.59129  -0.29898  -0.08662
C    -2.87092  -0.22176  -0.85873
C    -1.61732   0.16263   1.26550
N    -1.77497   0.53755   2.35677
H    -2.07476   2.68714   0.13344
H    -2.03113   2.45589  -1.62749
H    -0.96076   3.65927  -0.86244
H     2.74289   0.83907  -1.43349
H     2.59022   2.49013  -0.77499
H     2.78147   1.10175   0.32572
H    -0.77201  -1.47220  -1.45548
H    -2.67614  -0.30545  -1.93868
H    -3.51676  -1.03134  -0.52882
H    -3.38923   0.73407  -0.66521
24

C    -1.43478   2.66483  -0.74448
C    -0.29590   1.74619  -0.59965
C     0.87151   1.40295  -0.56901
C     2.33412   1.42020  -0.61126
C     0.68743  -1.16558  -0.10329
C     1.08895  -0.92710   1.22979
N     1.49324  -0.78134   2.31572
C     1.64311  -1.68605  -0.99992
N     2.45501  -2.09636  -1.73338
N    -0.61526  -1.08545  -0.52840
C    -1.60108  -0.31909  -0.07959
C    -2.87418  -0.22661  -0.85847
C    -1.61629   0.16064   1.26525
N    -1.77408   0.53913   2.35558
H    -2.07644   2.68536   0.13365
H    -2.03268   2.45424  -1.62743
H    -0.96663   3.66150  -0.86277
H     2.74289   0.83652  -1.43311
H     2.59569   2.48808  -0.77486
H     2.78175   1.09927   0.32610
H    -0.77196  -1.47134  -1.45630
H    -2.67594  -0.30623  -1.93846
H    -3.52043  -1.03142  -0.53055
H    -3.38818   0.73371  -0.66474
24

C    -1.44174   2.66624  -0.74484
C    -0.28390   1.77039  -0.60325
C     0.87632   1.42449  -0.57176
C     2.33998   1.41642  -0.61060
C     0.68488  -1.18392  -0.09822
C     1.08743  -0.92853   1.23002
N     1.49343  -0.77986   2.31539
C     1.64171  -1.69057  -0.99929
N     2.45572  -2.09581  -1.73416
N    -0.61388  -1.07946  -0.53224
C    -1.61086  -0.33920  -0.07256
C    -2.87744  -0.23145  -0.85822
C    -1.61527   0.15865   1.26501
N    -1.77319   0.54071   2.35439
H    -2.07812   2.68359   0.13385
H    -2.03423   2.45260  -1.62738
H    -0.97249   3.66374  -0.86310
H     2.74290   0.83397  -1.43274
H     2.60116   2.48604  -0.77473
H     2.78204   1.09678   0.32648
H    -0.77191  -1.47049  -1.45712
H    -2.67574  -0.30700  -1.93824
H    -3.52410  -1.03151  -0.53227
H    -3.38713   0.73335  -0.66426
24

C    -1.44870   2.66764  -0.74520
C    -0.27190   1.79458  -0.60684
C     0.88114   1.44603  -0.57451
C     2.34584   1.41264  -0.60994
C     0.68233  -1.20226  -0.09314
C     1.08591  -0.92996   1.23025
N     1.49362  -0.77839   2.31506
C     1.64031  -1.69508  -0.99866
N     2.45644  -2.09526  -1.73494
N    -0.61250  -1.07346  -0.53607
C    -1.62064  -0.35931  -0.06554
C    -2.88070  -0.23630  -0.85796
C    -1.61425   0.15665   1.26477
N    -1.77230   0.54229   2.35319
H    -2.07980   2.68181   0.13406
H    -2.03578   2.45096  -1.62733
H    -0.97836   3.66597  -0.86343
H     2.74291   0.83142  -1.43237
H     2.60663   2.48399  -0.77461
H     2.78232   1.09430   0.32686
H    -0.77185  -1.46963  -1.45794
H    -2.67553  -0.30778  -1.93802
H    -3.52778  -1.03159  -0.53399
H    -3.38608   0.73299  -0.66379
24

C    -1.45566   2.66905  -0.74556
C    -0.25990   1.81878  -0.61044
C     0.88595   1.46757  -0.57726
C     2.35170   1.40886  -0.60928
C     0.67979  -1.22060  -0.08807
C     1.08439  -0.93139   1.23048
N     1.49380  -0.77691   2.31473
C     1.63891  -1.69959  -0.99802
N     2.45716  -2.09472  -1.73572
N    -0.61113  -1.06747  -0.53991
C    -1.63042  -0.37943  -0.05851
C    -2.88396  -0.24114  -0.85771
C    -1.61322   0.15466   1.26452
N    -1.77141   0.54388   2.35200
H    -2.08148   2.68004   0.13426
H    -2.03733   2.44931  -1.62728
H    -0.98423   3.66820  -0.86375
H     2.74291   0.82887  -1.43200
H     2.61210   2.48195  -0.77448
H     2.78260   1.09182   0.32724
H    -0.77180  -1.46877  -1.45877
H    -2.67533  -0.30855  -1.93779
H    -3.53145  -1.03167  -0.53571
H    -3.38503   0.73263  -0.66331
24

C    -1.46263   2.67045  -0.74592
C    -0.24790   1.84297  -0.61404
C     0.89077   1.48911  -0.58000
C     2.35757   1.40508  -0.60862
C     0.67724  -1.23894  -0.08300
C     1.08287  -0.93282   1.23072
N     1.49399  -0.77543   2.31440
C     1.63751  -1.70410  -0.99739
N     2.45787  -2.09417  -1.73649
N    -0.60975  -1.06148  -0.54375
C    -1.64021  -0.39954  -0.05149
C    -2.88722  -0.24599  -0.85745
C    -1.61220   0.15267   1.26428
N    -1.77053   0.54546   2.35081
H    -2.08316   2.67826   0.13447
H    -2.03889   2.44767  -1.62722
H    -0.99010   3.67044  -0.86408
H     2.74292   0.82632  -1.43162
H     2.61757   2.47990  -0.77436
H     2.78289   1.08934   0.32762
H    -0.77175  -1.46791  -1.45959
H    -2.67513  -0.30932  -1.93757
H    -3.53513  -1.03176  -0.53744
H    -3.38399   0.73227  -0.66284
24

C    -1.46959   2.67186  -0.74628
C    -0.23590   1.86716  -0.61764
C     0.89558   1.51065  -0.58275
C     2.36343   1.40129  -0.60796
C     0.67469  -1.25728  -0.07793
C     1.08135  -0.93426   1.23095
N     1.49418  -0.77395   2.31407
C     1.63611  -1.70862  -0.99676
N     2.45859  -2.09362  -1.73727
N    -0.60838  -1.05548  -0.54758
C    -1.64999  -0.41965  -0.04446
C    -2.89048  -0.25083  -0.85719
C    -1.61118   0.15068   1.26403
N    -1.76964   0.54704   2.34962
H    -2.08484   2.67649   0.13467
H    -2.04044   2.44603  -1.62717
H    -0.99597   3.67267  -0.86441
H     2.74292   0.82377  -1.43125
H     2.62304   2.47786  -0.77423
H     2.78317   1.08685   0.32800
H    -0.77170  -1.46705  -1.46041
H    -2.67493  -0.31010  -1.93735
H    -3.53880  -1.03184  -0.53916
H    -3.38294   0.73191  -0.66236
24

C    -1.46263   2.67045  -0.74592
C    -0.24790   1.84297  -0.61404
C     0.89077   1.48911  -0.58000
C     2.35757   1.40508  -0.60862
C     0.67724  -1.23894  -0.08300
C     1.08287  -0.93282   1.23072
N     1.49399  -0.77543   2.31440
C     1.63751  -1.70410  -0.99739
N     2.45787  -2.09417  -1.73649
N    -0.60975  -1.06148  -0.54375
C    -1.64021  -0.39954  -0.05149
C    -2.88722  -0.24599  -0.85745
C    -1.61220   0.15267   1.26428
N    -1.77053   0.54546   2.35081
H    -2.08316   2.67826   0.13447
H    -2.03889   2.44767  -1.62722
H    -0.99010   3.67044  -0.86408
H     2.74292   0.82632  -1.43162
H     2.61757   2.47990  -0.77436
H     2.78289   1.08934   0.32762
H    -0.77175  -1.46791  -1.45959
H    -2.67513  -0.30932  -1.93757
H    -3.53513  -1.03176  -0.53744
H    -3.38399   0.73227  -0.66284
24

C    -1.45566   2.66905  -0.74556
C    -0.25990   1.81878  -0.61044
C     0.88595   1.46757  -0.57726
C     2.35170   1.40886  -0.60928
C     0.67979  -1.22060  -0.08807
C     1.08439  -0.93139   1.23048
N     1.49380  -0.77691   2.31473
C     1.63891  -1.69959  -0.99802
N     2.45716  -2.09472  -1.73572
N    -0.61113  -1.06747  -0.53991
C    -1.63042  -0.37943  -0.05851
C    -2.88396  -0.24114  -0.85771
C    -1.61322   0.15466   1.26452
N    -1.77141   0.54388   2.35200
H    -2.08148   2.68004   0.13426
H    -2.03733   2.44931  -1.62728
H    -0.98423   3.66820  -0.86375
H     2.74291   0.82887  -1.43200
H     2.61210   2.48195  -0.77448
H     2.78260   1.09182   0.32724
H    -0.77180  -1.46877  -1.45877
H    -2.67533  -0.30855  -1.93779
H    -3.53145  -1.03167  -0.53571
H    -3.38503   0.73263  -0.66331
24

C    -1.44870   2.66764  -0.74520
C    -0.27190   1.79458  -0.60684
C     0.88114   1.44603  -0.57451
C     2.34584   1.41264  -0.60994
C     0.68233  -1.20226  -0.09314
C     1.08591  -0.92996   1.23025
N     1.49362  -0.77839   2.31506
C     1.64031  -1.69508  -0.99866
N     2.45644  -2.09526  -1.73494
N    -0.61250  -1.07346  -0.53607
C    -1.62064  -0.35931  -0.06554
C    -2.88070  -0.23630  -0.85796
C    -1.61425   0.15665   1.26477
N    -1.77230   0.54229   2.35319
H    -2.07980   2.68181   0.13406
H    -2.03578   2.45096  -1.62733
H    -0.97836   3.66597  -0.86343
H     2.74291   0.83142  -1.43237
H     2.60663   2.48399  -0.77461
H     2.78232   1.09430   0.32686
H    -0.77185  -1.46963  -1.45794
H    -2.67553  -0.30778  -1.93802
H    -3.52778  -1.03159  -0.53399
H    -3.38608   0.73299  -0.66379
24

C    -1.44174   2.66624  -0.74484
C    -0.28390   1.77039  -0.60325
C     0.87632   1.42449  -0.57176
C     2.33998   1.41642  -0.61060
C     0.68488  -1.18392  -0.09822
C     1.08743  -0.92853   1.23002
N     1.49343  -0.77986   2.31539
C     1.64171  -1.69057  -0.99929
N     2.45572  -2.09581  -1.73416
N    -0.61388  -1.07946  -0.53224
C    -1.61086  -0.33920  -0.07256
C    -2.87744  -0.23145  -0.85822
C    -1.61527   0.15865   1.26501
N    -1.77319   0.54071   2.35439
H    -2.07812   2.68359   0.13385
H    -2.03423   2.45260  -1.62738
H    -0.97249   3.66374  -0.86310
H     2.74290   0.83397  -1.43274
H     2.60116   2.48604  -0.77473
H     2.78204   1.09678   0.32648
H    -0.77191  -1.47049  -1.45712
H    -2.67574  -0.30700  -1.93824
H    -3.52410  -1.03151  -0.53227
H    -3.38713   0.73335  -0.66426
24

C    -1.43478   2.66483  -0.74448
C    -0.29590   1.74619  -0.59965
C     0.87151   1.40295  -0.56901
C     2.33412   1.42020  -0.61126
C     0.68743  -1.16558  -0.10329
C     1.08895  -0.92710   1.22979
N     1.49324  -0.78134   2.31572
C     1.64311  -1.68605  -0.99992
N     2.45501  -2.09636  -1.73338
N    -0.61526  -1.08545  -0.52840
C    -1.60108  -0.31909  -0.07959
C    -2.87418  -0.22661  -0.85847
C    -1.61629   0.16064   1.26525
N    -1.77408   0.53913   2.35558
H    -2.07644   2.68536   0.13365
H    -2.03268   2.45424  -1.62743
H    -0.96663   3.66150  -0.86277
H     2.74289   0.83652  -1.43311
H     2.59569   2.48808  -0.77486
H     2.78175   1.09927   0.32610
H    -0.77196  -1.47134  -1.45630
H    -2.67594  -0.30623  -1.93846
H    -3.52043  -1.03142  -0.53055
H    -3.38818   0.73371  -0.66474
24

C    -1.42781   2.66343  -0.74412
C    -0.30790   1.72200  -0.59605
C     0.86669   1.38141  -0.56626
C     2.32825   1.42398  -0.61192
C     0.68997  -1.14724  -0.10836
C     1.09048  -0.92567   1.22956
N     1.49305  -0.78282   2.31604
C     1.64451  -1.68154  -1.00055
N     2.45429  -2.09691  -1.73260
N    -0.61663  -1.09145  -0.52457
C    -1.59129  -0.29898  -0.08662
C    -2.87092  -0.22176  -0.85873
C    -1.61732   0.16263   1.26550
N    -1.77497   0.53755   2.35677
H    -2.07476   2.68714   0.13344
H    -2.03113   2.45589  -1.62749
H    -0.96076   3.65927  -0.86244
H     2.74289   0.83907  -1.43349
H     2.59022   2.49013  -0.77499
H     2.78147   1.10175   0.32572
H    -0.77201  -1.47220  -1.45548
H    -2.67614  -0.30545  -1.93868
H    -3.51676  -1.03134  -0.52882
H    -3.38923   0.73407  -0.66521
24

C    -1.42085   2.66203  -0.74376
C    -0.31991   1.69781  -0.59245
C     0.86188   1.35987  -0.56351
C     2.32239   1.42776  -0.61258
C     0.69252  -1.12890  -0.11343
C     1.09200  -0.92424   1.22933
N     1.49286  -0.78430   2.31637
C     1.64591  -1.67703  -1.00119
N     2.45357  -2.09745  -1.73182
N    -0.61801  -1.09744  -0.52073
C    -1.58151  -0.27887  -0.09364
C    -2.86767  -0.21692  -0.85899
C    -1.61834   0.16462   1.26574
N    -1.77586   0.53596   2.35796
H    -2.07308   2.68891   0.13324
H    -2.02958   2.45753  -1.62754
H    -0.95489   3.65703  -0.86211
H     2.74288   0.84162  -1.43386
H     2.58475   2.49217  -0.77511
H     2.78119   1.10423   0.32534
H    -0.77207  -1.47306  -1.45465
H    -2.67634  -0.30468  -1.93890
H    -3.51308  -1.03126  -0.52710
H    -3.39027   0.73443  -0.66569
24

C    -1.41389   2.66062  -0.74340
C    -0.33191   1.67361  -0.58886
C     0.85706   1.33833  -0.56077
C     2.31653   1.43154  -0.61324
C     0.69507  -1.11056  -0.11850
C     1.09352  -0.92281   1.22910
N     1.49267  -0.78578   2.31670
C     1.64731  -1.67251  -1.00182
N     2.45286  -2.09800  -1.73104
N    -0.61939  -1.10343  -0.51689
C    -1.57173  -0.25876  -0.10067
C    -2.86441  -0.21208  -0.85924
C    -1.61936   0.16662   1.26599
N    -1.77674   0.53438   2.35916
H    -2.07140   2.69068   0.13303
H    -2.02803   2.45917  -1.62759
H    -0.94902   3.65480  -0.86178
H     2.74288   0.84417  -1.43423
H     2.57928   2.49421  -0.77524
H     2.78090   1.10671   0.32496
H    -0.77212  -1.47392  -1.45383
H    -2.67654  -0.30391  -1.93912
H    -3.50941  -1.03118  -0.52538
H    -3.39132   0.73479  -0.66617
24

C    -1.40692   2.65922  -0.74305
C    -0.34391   1.64942  -0.58526
C     0.85225   1.31679  -0.55802
C     2.31066   1.43532  -0.61390
C     0.69761  -1.09223  -0.12358
C     1.09504  -0.92138   1.22887
N     1.49248  -0.78726   2.31703
C     1.64871  -1.66800  -1.00245
N     2.45214  -2.09855  -1.73027
N    -0.62076  -1.10943  -0.51306
C    -1.56194  -0.23865  -0.10769
C    -2.86115  -0.20723  -0.85950
C    -1.62039   0.16861   1.26623
N    -1.77763   0.53280   2.36035
H    -2.06972   2.69246   0.13283
H    -2.02647   2.46081  -1.62764
H    -0.94315   3.65256  -0.86145
H     2.74287   0.84672  -1.43460
H     2.57381   2.49626  -0.77536
H     2.78062   1.10920   0.32457
H    -0.77217  -1.47478  -1.45301
H    -2.67674  -0.30313  -1.93935
H    -3.50573  -1.03109  -0.52365
H    -3.39237   0.73515  -0.66664
24

C    -1.39996   2.65781  -0.74269
C    -0.35591   1.62522  -0.58166
C     0.84743   1.29524  -0.55527
C     2.30480   1.43910  -0.61456
C     0.70016  -1.07389  -0.12865
C     1.09656  -0.91994   1.22864
N     1.49229  -0.78874   2.31736
C     1.65011  -1.66349  -1.00308
N     2.45142  -2.09910  -1.72949
N    -0.62214  -1.11542  -0.50922
C    -1.55216  -0.21854  -0.11472
C    -2.85789  -0.20239  -0.85975
C    -1.62141   0.17060   1.26648
N    -1.77852   0.53122   2.36154
H    -2.06804   2.69423   0.13262
H    -2.02492   2.46246  -1.62769
H    -0.93728   3.65033  -0.86112
H     2.74287   0.84927  -1.43498
H     2.56834   2.49830  -0.77549
H     2.78033   1.11168   0.32419
H    -0.77222  -1.47564  -1.45218
H    -2.67694  -0.30236  -1.93957
H    -3.50206  -1.03101  -0.52193
H    -3.39342   0.73551  -0.66712
24

C    -1.39300   2.65641  -0.74233
C    -0.36791   1.60103  -0.57806
C     0.84262   1.27370  -0.55252
C     2.29894   1.44288  -0.61522
C     0.70271  -1.05555  -0.13372
C     1.09808  -0.91851   1.22841
N     1.49210  -0.79022   2.31769
C     1.65151  -1.65898  -1.00372
N     2.45071  -2.09964  -1.72871
N    -0.62352  -1.12141  -0.50538
C    -1.54238  -0.19843  -0.12174
C    -2.85463  -0.19754  -0.86001
C    -1.62244   0.17260   1.26672
N    -1.77941   0.52963   2.36273
H    -2.06636   2.69601   0.13242
H    -2.02337   2.46410  -1.62775
H    -0.93141   3.64810  -0.86079
H     2.74286   0.85182  -1.43535
H     2.56287   2.50035  -0.77562
H     2.78005   1.11416   0.32381
H    -0.77228  -1.47650  -1.45136
H    -2.67715  -0.30159  -1.93979
H    -3.49839  -1.03093  -0.52021
H    -3.39446   0.73587  -0.66759
24

C    -1.38604   2.65501  -0.74197
C    -0.37991   1.57684  -0.57447
C     0.83781   1.25216  -0.54977
C     2.29308   1.44666  -0.61588
C     0.70526  -1.03721  -0.13879
C     1.09960  -0.91708   1.22818
N     1.49192  -0.79170   2.31802
C     1.65291  -1.65446  -1.00435
N     2.44999  -2.10019  -1.72793
N    -0.62489  -1.12741  -0.50155
C    -1.53260  -0.17832  -0.12877
C    -2.85137  -0.19270  -0.86027
C    -1.62346   0.17459   1.26696
N    -1.78030   0.52805   2.36392
H    -2.06468   2.69778   0.13221
H    -2.02182   2.46574  -1.62780
H    -0.92555   3.64586  -0.86046
H     2.74286   0.85437  -1.43572
H     2.55740   2.50239  -0.77574
H     2.77977   1.11664   0.32343
H    -0.77233  -1.47735  -1.45054
H    -2.67735  -0.30081  -1.94001
H    -3.49471  -1.03084  -0.51849
H    -3.39551   0.73623  -0.66807
24

C    -1.37907   2.65360  -0.74161
C    -0.39191   1.55264  -0.57087
C     0.83299   1.23062  -0.54702
C     2.28721   1.45044  -0.61654
C     0.70780  -1.01887  -0.14387
C     1.10112  -0.91565   1.22795
N     1.49173  -0.79317   2.31835
C     1.65431  -1.64995  -1.00498
N     2.44927  -2.10074  -1.72715
N    -0.62627  -1.13340  -0.49771
C    -1.52281  -0.15821  -0.13579
C    -2.84812  -0.18785  -0.86052
C    -1.62448   0.17658   1.26721
N    -1.78119   0.52647   2.36512
H    -2.06300   2.69956   0.13201
H    -2.02027   2.46738  -1.62785
H    -0.91968   3.64363  -0.86013
H     2.74285   0.85692  -1.43609
H     2.55193   2.50444  -0.77587
H     2.77948   1.11913   0.32305
H    -0.77238  -1.47821  -1.44972
H    -2.67755  -0.30004  -1.94023
H    -3.49104  -1.03076  -0.51676
H    -3.39656   0.73659  -0.66854
24

C    -1.37211   2.65220  -0.74125
C    -0.40392   1.52845  -0.56727
C     0.82818   1.20908  -0.54427
C     2.28135   1.45422  -0.61720
C     0.71035  -1.00053  -0.14894
C     1.10264  -0.91422   1.22772
N     1.49154  -0.79465   2.31868
C     1.65571  -1.64544  -1.00561
N     2.44856  -2.10128  -1.72637
N    -0.62765  -1.13939  -0.49388
C    -1.51303  -0.13810  -0.14282
C    -2.84486  -0.18301  -0.86078
C    -1.62551   0.17857   1.26745
N    -1.78208   0.52489   2.36631
H    -2.06132   2.70133   0.13181
H    -2.01872   2.46903  -1.62790
H    -0.91381   3.64139  -0.85980
H     2.74285   0.85947  -1.43647
H     2.54646   2.50648  -0.77599
H     2.77920   1.12161   0.32267
H    -0.77243  -1.47907  -1.44889
H    -2.67775  -0.29926  -1.94045
H    -3.48736  -1.03068  -0.51504
H    -3.39761   0.73695  -0.66902
24

C    -1.36515   2.65079  -0.74089
C    -0.41592   1.50426  -0.56367
C     0.82336   1.18754  -0.54153
C     2.27549   1.45800  -0.61786
C     0.71290  -0.98219  -0.15401
C     1.10416  -0.91279   1.22749
N     1.49135  -0.79613   2.31900
C     1.65712  -1.64092  -1.00624
N     2.44784  -2.10183  -1.72560
N    -0.62902  -1.14539  -0.49004
C    -1.50325  -0.11799  -0.14984
C    -2.84160  -0.17817  -0.86104
C    -1.62653   0.18057   1.26770
N    -1.78296   0.52330   2.36750
H    -2.05964   2.70311   0.13160
H    -2.01717   2.47067  -1.62795
H    -0.90794   3.63916  -0.85947
H     2.74284   0.86202  -1.43684
H     2.54099   2.50852  -0.77612
H     2.77891   1.12409   0.32229
H    -0.77249  -1.47993  -1.44807
H    -2.67795  -0.29849  -1.94068
H    -3.48369  -1.03060  -0.51332
H    -3.39866   0.73730  -0.66950
24

C    -1.35819   2.64939  -0.74053
C    -0.42792   1.48006  -0.56008
C     0.81855   1.16600  -0.53878
C     2.26962   1.46178  -0.61852
C     0.71544  -0.96385  -0.15908
C     1.10568  -0.91136   1.22725
N     1.49116  -0.79761   2.31933
C     1.65852  -1.63641  -1.00688
N     2.44712  -2.10238  -1.72482
N    -0.63040  -1.15138  -0.48620
C    -1.49346  -0.09788  -0.15687
C    -2.83834  -0.17332  -0.86129
C    -1.62755   0.18256   1.26794
N    -1.78385   0.52172   2.36869
H    -2.05796   2.70488   0.13140
H    -2.01561   2.47231  -1.62801
H    -0.90207   3.63693  -0.85914
H     2.74284   0.86457  -1.43721
H     2.53552   2.51057  -0.77625
H     2.77863   1.12658   0.32191
H    -0.77254  -1.48079  -1.44725
H    -2.67815  -0.29772  -1.94090
H    -3.48002  -1.03051  -0.51160
H    -3.39970   0.73766  -0.66997
24

C    -1.35122   2.64798  -0.74017
C    -0.43992   1.45587  -0.55648
C     0.81373   1.14446  -0.53603
C     2.26376   1.46556  -0.61918
C     0.71799  -0.94551  -0.16415
C     1.10720  -0.90993   1.22702
N     1.49097  -0.79909   2.31966
C     1.65992  -1.63190  -1.00751
N     2.44640  -2.10293  -1.72404
N    -0.63178  -1.15737  -0.48237
C    -1.48368  -0.07777  -0.16389
C    -2.83508  -0.16848  -0.86155
C    -1.62858   0.18455   1.26819
N    -1.78474   0.52014   2.36989
H    -2.05628   2.70666   0.13119
H    -2.01406   2.47396  -1.62806
H    -0.89620   3.63469  -0.85881
H     2.74283   0.86712  -1.43758
H     2.53004   2.51261  -0.77637
H     2.77835   1.12906   0.32153
H    -0.77259  -1.48165  -1.44643
H    -2.67835  -0.29694  -1.94112
H    -3.47634  -1.03043  -0.50987
H    -3.40075   0.73802  -0.67045
24

C    -1.34426   2.64658  -0.73982
C    -0.45192   1.43167  -0.55288
C     0.80892   1.12292  -0.53328
C     2.25790   1.46934  -0.61984
C     0.72054  -0.92717  -0.16923
C     1.10872  -0.90850   1.22679
N     1.49078  -0.80057   2.31999
C     1.66132  -1.62738  -1.00814
N     2.44569  -2.10347  -1.72326
N    -0.63315  -1.16337  -0.47853
C    -1.47390  -0.05766  -0.17092
C    -2.83182  -0.16363  -0.86180
C    -1.62960   0.18654   1.26843
N    -1.78563   0.51856   2.37108
H    -2.05460   2.70843   0.13099
H    -2.01251   2.47560  -1.62811
H    -0.89033   3.63246  -0.85848
H     2.74283   0.86967  -1.43796
H     2.52457   2.51466  -0.77650
H     2.77806   1.13154   0.32115
H    -0.77265  -1.48251  -1.44560
H    -2.67856  -0.29617  -1.94134
H    -3.47267  -1.03035  -0.50815
H    -3.40180   0.73838  -0.67092
24

C    -1.33730   2.64518  -0.73946
C    -0.46392   1.40748  -0.54928
C     0.80410   1.10138  -0.53053
C     2.25204   1.47312  -0.62050
C     0.72308  -0.90883  -0.17430
C     1.11024  -0.90706   1.22656
N     1.49059  -0.80205   2.32032
C     1.66272  -1.62287  -1.00877
N     2.44497  -2.10402  -1.72248
N    -0.63453  -1.16936  -0.47470
C    -1.46412  -0.03755  -0.17795
C    -2.82856  -0.15879  -0.86206
C    -1.63062   0.18854   1.26868
N    -1.78652   0.51697   2.37227
H    -2.05292   2.71021   0.13078
H    -2.01096   2.47724  -1.62816
H    -0.88447   3.63022  -0.85815
H     2.74282   0.87222  -1.43833
H     2.51910   2.51670  -0.77662
H     2.77778   1.13402   0.32077
H    -0.77270  -1.48336  -1.44478
H    -2.67876  -0.29540  -1.94156
H    -3.46899  -1.03026  -0.50643
H    -3.40285   0.73874  -0.67140
