14

C 4.710363067 0.299308430 0.197353056
N 2.224646046 -0.795769321 0.079145226
C 0.210836441 0.528850533 0.011087552
C -2.175925505 -0.731784688 -0.091518246
C -4.773876459 0.349241929 -0.196824443
N -1.666506213 -3.191025908 -0.088950202
N 0.153841772 -4.375856730 -0.023807733
H 5.686513965 -0.379820022 1.883616640
H 4.680017637 2.370428382 0.243644562
H 5.815530519 -0.303283166 -1.437950509
H 0.223214412 2.589698142 0.030161919
H -5.941145717 -0.252340874 1.395420428
H -4.645367675 2.404693388 -0.121295718
H -5.764456645 -0.143306001 -1.939591915

