12

C -3.652664344 -0.816391846 0.364846550
C -0.982141349 0.001756255 0.460928825
C -0.076450685 2.518604415 0.772517564
C 2.462846704 2.060987014 0.722899252
C 3.115573188 -0.652132750 0.386790296
O 0.691858951 -1.832798654 0.229555615
H -3.857057896 -2.856131706 0.204156373
H -4.601819333 -0.115004990 2.055336261
H -4.555937161 0.124414069 -1.233850885
H 3.953370151 3.460785805 0.905026199
H 4.121263473 -1.498789694 1.979405988
H 4.139342879 -1.077328404 -1.355436790

