12

C -3.610842853 -0.663296855 0.376970618
C -1.233702428 0.709648455 0.685673651
C 0.024533596 2.753372008 1.079711349
C 2.303000800 1.752346588 0.097800602
C 3.224196460 -0.649248839 1.118516137
O 1.199759413 -1.520286311 -0.396314213
H -3.982883062 -1.053549980 -1.612572844
H -3.566387858 -2.450949405 1.401644883
H -5.126200532 0.527304964 1.109507889
H 3.124029523 2.443022854 -1.654233330
H 2.988681102 -0.953290107 3.144027550
H 5.035769823 -1.304405095 0.396045797

