11

O -3.270870465 2.474216563 1.743452479
C -1.623839146 1.147139895 0.977891261
C -1.547391541 -0.998275623 -0.996449222
N 1.180591108 -1.275007419 -0.368929020
C 2.733847453 1.060219069 -0.732533681
C 1.124773947 0.771622760 1.581774314
H -2.698275531 -2.597995948 -0.381037837
H -1.860784610 -0.589174389 -2.987808219
H 1.794898704 2.172737972 -2.201121602
H 2.008967030 -2.963644631 -0.061088288
H 1.908147874 0.569153383 3.465144780

