16

C -4.435655318 -0.488765020 0.454360893
C -1.803503326 -0.489562201 -0.703388132
C -0.097620360 1.563331665 0.426985262
C 2.529795733 1.576901939 -0.603993092
C 4.329049065 -0.162430767 0.141813042
C 5.549089000 -1.624252088 1.679468280
H -4.349665013 -0.820753258 2.490014617
H -5.613695712 -1.963840371 -0.374659577
H -5.386358995 1.319453910 0.154456047
H -0.900858635 -2.325470437 -0.408544804
H -1.929616788 -0.216554923 -2.749480533
H -0.955035930 3.416192048 0.099563603
H 0.039287009 1.263694064 2.472852351
H 4.213842819 -0.581223272 -2.025373274
H 2.997382989 2.862504051 -2.132278709
H 5.998979575 -3.563808363 1.174923990

