15

C -2.898174805 1.858005579 -0.711122271
C -0.160500808 1.071531121 -0.938057781
O 1.198858392 1.546574027 1.333104384
C 0.199112316 -1.767159282 -1.428065163
O 2.694041109 -2.240240746 -0.553564617
C 2.969090293 -1.188439973 1.764627351
O 1.563121262 -1.843811713 3.655871001
H -3.827974331 0.820909085 0.811734786
H -3.902429654 1.467982868 -2.470750012
H -3.047111132 3.873672293 -0.316990937
H 0.782392120 2.145882809 -2.431324315
H 0.504781677 0.192212964 3.031656819
H 0.130309183 -2.262743548 -3.421932016
H -1.170228191 -2.900426527 -0.373900965
H 4.935795998 -0.639007393 2.070215019

