13

C 3.948571059 0.896439530 -0.024151701
C 1.601892206 0.223752266 -1.454678819
C -0.700876743 0.795266484 -0.718388287
C -2.326610396 1.978729579 1.177619816
H -2.584734569 1.037479938 2.979234550
H -2.411065336 4.024040635 1.269741962
C -3.419988413 0.699014928 -1.175447368
H -4.400492258 -1.081925011 -0.922271330
H -4.218249206 1.907940061 -2.624200970
H 1.837338305 -0.803601159 -3.218386213
H 5.016541633 -0.796006576 0.489131400
H 3.493294424 1.924313820 1.702649153
H 5.200827385 2.074335114 -1.169872336

