14

C 2.974992493 0.486595879 0.048170857
N 3.007367394 -2.122831269 0.623560658
C 0.927277951 -1.978278653 -1.138212337
C -0.240832102 0.515914507 -0.825070734
C -3.909155491 0.258167070 0.399582249
N -1.669402389 0.961126858 1.524542749
H 4.234469463 1.034240022 -1.471700432
H 2.902711622 1.811372637 1.638618561
H 2.392215564 -2.436175204 2.415646467
H 1.234647915 -2.758703682 -3.007916435
H -0.697781920 1.734999091 -2.402758516
H -4.174019921 -1.743883771 0.071923316
H -5.426764136 1.591649437 0.078483123
H -1.621524817 2.807142464 2.018398408

