13

O -0.869033663 0.302737602 2.850378019
C -1.610262389 -1.864925094 1.444069688
C 0.589742724 -2.303674298 -0.409999307
O 2.392724637 -0.432140605 0.268480685
C 1.024447669 1.481235593 1.449433430
N -0.116073139 3.091782953 -0.440883026
H -1.206005430 4.421923775 0.392486781
H -1.871023505 -3.416223493 2.774414657
H -3.382568548 -1.514621612 0.446476521
H 1.484343872 -4.145605734 -0.193967820
H -0.012858471 -2.055282158 -2.368053393
H 2.291203070 2.448221585 2.769044717
H 1.233123586 3.959862097 -1.479452845

