13

O -2.148267984 0.656158037 2.165938775
C -1.958384788 -1.810372670 1.548511960
C 0.270089258 -2.140603840 -0.307410857
O 2.323874809 -0.694006700 0.763147830
C 2.043299083 1.707352511 0.981140796
N 0.669297038 3.199843370 -0.496531549
H -1.196184580 2.536901651 -0.336370608
H -1.620800844 -3.053464712 3.200073501
H -3.621292528 -2.600021697 0.554534443
H 1.001335638 -4.055110851 -0.482159822
H -0.172306419 -1.365268695 -2.170545228
H 3.480826559 2.538737803 2.191923568
H 0.876275169 5.053144532 -0.109828445

