10

C 3.812655682 -0.590534916 -0.131881189
C 1.541847992 0.426331965 1.270507093
O 2.192814781 2.204825824 3.128574693
H 3.153844810 3.523176833 2.327495562
O -0.094085930 1.479458533 -0.536085293
H -1.550704552 2.115912433 0.339129589
H 0.588025530 -1.081221334 2.321665776
H 4.738941905 0.939936735 -1.164083689
H 3.237393872 -2.025701746 -1.492003990
H 5.151769811 -1.413884809 1.198014024

