13

O 4.002794652 0.944583307 0.007924529
C 1.746384502 0.674212991 -0.859992079
C 0.449003406 -1.517769914 0.182052095
C -2.292534514 -0.704100276 -0.147532015
N -2.490115793 0.899580859 2.149356504
C -1.176106184 1.793554013 -0.112001686
H 4.239829803 -1.864222589 -0.100591841
H 1.432055698 0.921669169 -2.911464852
H 0.858881450 -1.841836496 2.169215617
H 3.178994324 -3.172099073 -0.340119503
H -3.857156918 -1.484955274 -1.189551698
H -4.208406832 1.765937687 2.215670849
H -1.689265262 3.488393041 -1.128059424

