14

C 3.975889507 0.544015755 1.555027565
C 1.231979716 0.168369836 1.117570084
C -0.424030751 -1.648019042 1.669337080
H -0.274704517 -3.479665946 2.570824125
C -2.657832066 -0.217028564 0.654819109
O -3.954447918 -1.470636554 -1.303377084
H -5.382820067 -0.469347045 -1.792781889
H -3.986370551 0.423373825 2.112236670
C -0.711682726 1.865220364 -0.122912455
H -0.527192468 2.040267868 -2.170613844
H -0.974855794 3.738388841 0.711589751
H 4.814472180 -1.085640005 2.497050653
H 4.962959224 0.846219982 -0.233846408
H 4.307002972 2.216708932 2.721433237

