14

O 3.426954530 1.915837434 -0.346287834
C 2.149175298 0.195014993 -1.921338125
C -0.619000560 -0.081194029 -1.265198777
C -1.329089642 -1.329525186 1.190657566
N -0.234952219 0.070073728 3.319369077
C -2.343583368 0.900697404 -2.742816357
O -3.860551584 1.732509528 -4.084649046
H 2.921515852 1.511512993 1.364374514
H 2.381193774 0.855505605 -3.860274040
H 3.018539663 -1.688761405 -1.799971617
H -0.509069447 -3.227842516 1.224897589
H -3.384079120 -1.556334670 1.320776114
H -0.374249582 -0.927351688 4.943303672
H -1.153202287 1.729814892 3.569027636

