14

O 4.013722787 -0.384446280 -0.044199692
C 1.903077531 -0.029246875 -1.640631554
C -0.658801235 -0.677739768 -0.576303767
C -0.605597564 -2.290282338 1.592866289
N -0.752251272 0.528510533 2.324825001
C -2.632065575 2.519844832 -1.555797723
O -3.965223533 2.758230891 -3.241901096
H 3.755408961 0.631313713 1.440381264
H 1.882132997 1.915305420 -2.378977371
H 2.168552361 -1.274937443 -3.267239092
H 1.141518375 -3.209489912 2.163851705
H -2.308311970 -3.270991993 2.172565931
H -2.577950830 0.648487034 2.943101777
H -1.298822749 2.239535822 0.688155844

