11

C 1.540453922 2.074707031 0.301090101
H 0.278564641 2.674718772 1.829756875
H 3.143636074 3.385918522 0.320804367
C 2.374259689 -0.611166134 0.613203296
H 3.399114234 -1.308965287 2.236544896
C 1.647647881 -1.951975555 -1.405003758
H 1.982580652 -3.944895485 -1.714743797
C 0.304480893 -0.288920454 -3.166439400
H -0.487324179 -0.887976297 -4.953611883
C 0.226268039 2.049570839 -2.205143638
H -0.634010617 3.693019067 -3.060298680

