14

C 5.114250508 0.003402584 -0.085741655
C 2.612170690 -0.363534627 -0.679116887
C 0.445132151 -0.400651720 -1.780121839
C -1.964735855 0.658734509 -0.852628818
C -3.830661484 -1.426658394 -0.190458920
O -1.769884683 2.237384293 1.337710554
H 6.033813615 -1.195355690 1.292747280
H 2.551952186 -0.144589994 1.527228352
H 6.191256752 1.565459912 -0.866780429
H -2.755501956 1.770933140 -2.418814480
H -3.070763700 -2.584207505 1.337562664
H -5.606617176 -0.595623363 0.439834115
H -4.170638256 -2.632165542 -1.822798715
H -0.746934603 3.672361659 0.912293103

