19

C 3.680351874 0.225749196 -0.583092627
C 1.555960750 -0.301982449 1.291421580
C -1.131752422 -0.171869703 0.193381873
C -1.489219422 -2.005060607 -2.014405795
C -3.051826414 -0.836929181 2.286790654
C -2.031149977 2.403415952 -0.657667475
O -0.791058858 4.158946823 0.575475424
H 3.474009466 2.079392626 -1.465073408
H 3.749277896 -1.184865556 -2.085956098
H 5.508136065 0.195002804 0.372023768
H 1.696637122 1.020444870 2.870604079
H 1.814739373 -2.189692141 2.099867392
H -0.326874772 -1.483762630 -3.635351732
H -0.979303888 -3.926039552 -1.448734383
H -3.453604090 -1.999741558 -2.638358930
H -2.782868800 0.351331569 3.951814415
H -2.786130997 -2.807274273 2.841196973
H -4.993208996 -0.607139940 1.628716907
H -1.466665484 5.773466104 0.080411437

