19

C 3.815850018 0.476996183 -0.786930392
C 1.871306832 -0.398730455 1.151547246
C -0.816972105 -0.498086113 0.131346019
C -1.216349243 -2.421832448 -1.958007258
C -2.899665874 -0.460507681 2.043193051
C -2.127664791 1.995762739 -0.363148877
O -0.990648537 3.930850908 0.940023001
H 3.320225860 2.334943578 -1.530959428
H 3.965722856 -0.829589995 -2.376126832
H 5.684442901 0.614764475 0.074738819
H 1.928912941 0.860158149 2.782796915
H 2.371840820 -2.283290767 1.842084560
H -0.008158193 -2.022661951 -3.579419655
H -0.796863189 -4.329903561 -1.281169419
H -3.167284391 -2.378860227 -2.623208391
H -2.446133815 0.210752783 3.922473298
H -4.368400495 -1.886057278 1.894249845
H -4.177789622 1.346892922 0.785411430
H -1.907611570 5.439309896 0.538219871

