14

N 2.955947266 -3.018648681 0.213497214
C 1.426463582 -1.042883119 -0.136256831
O 2.593093867 1.059299680 -0.904020355
C 0.620429136 2.792820041 -1.758754838
C -1.836461132 1.589151560 -0.944206760
C -2.743099703 -0.805124146 -2.146510085
C -1.160486331 -0.931512185 0.220567888
H 4.814157578 -2.885233148 -0.131447875
H 0.888274061 3.035435648 -3.792331073
H 0.940014913 4.594134403 -0.815156456
H -3.189218498 2.791838366 0.015829348
H -1.907998151 -1.345339359 -3.945209179
H -4.735689611 -1.266976348 -2.001067011
H 2.241987401 -4.578223589 1.013655613

