14

N 2.866646841 -3.077486117 0.328637565
C 1.753760368 -1.116804934 -0.604137448
O 2.623803730 0.856428113 -1.830760093
C 0.612837691 2.761166996 -1.766178401
C -1.702362160 1.470848544 -0.653808843
C -2.607018049 -0.764003554 -2.094305399
C -0.863928946 -1.170875025 0.141173143
H 4.708826285 -3.517565140 0.090565521
H 0.372079553 3.443188940 -3.697227147
H 1.299229834 4.295223761 -0.574241660
H -2.976903006 2.622383658 0.456119226
H -1.921831683 -1.019266285 -4.015201630
H -4.542834575 -1.364324644 -1.812182158
H 0.665701589 -3.357384867 1.318287136

