12

C -1.892691615 1.228823476 0.709984543
H -2.415305258 -0.408884709 1.848954376
H -3.599632487 2.240696189 0.167548334
C 0.183614540 3.012972511 1.715267535
H -0.400863219 4.981496454 1.838844058
H 1.116696293 2.476253555 3.477434954
N 1.798726533 2.619090772 -0.567967845
C 2.376190441 -0.081074353 -0.607908057
H 3.772528123 -0.580394495 -2.017610865
H 2.543254154 -1.084993303 1.176208342
C -0.119330895 0.744311720 -1.493467054
H -0.664119359 0.650117641 -3.465188678

