15

O -4.690309066 -0.049765068 -0.682434225
C -3.078301231 -0.622920835 1.354935559
C -0.699894841 0.976897567 1.278328159
N 0.564419260 0.568244879 -1.126330949
C 3.185780028 1.317865217 -1.286050544
C 2.482237959 -1.389161239 -1.176934980
H -3.615940710 0.123050896 -2.142028127
H -2.556391058 -2.635071562 1.342584914
H -4.125345451 -0.259513046 3.095427555
H -1.209336961 2.975448919 1.397852449
H 0.525669444 0.520648668 2.898208555
H 3.775422805 2.163373094 -3.054859519
H 4.038620156 2.133308269 0.394002984
H 2.859347963 -2.391727202 0.574857843
H 2.544021704 -2.541193654 -2.867559673

