8

C 0.029644247 -5.217199311 -0.452893350
C 0.086125855 -2.717119389 -0.236091743
C 2.362788522 -1.280224670 -0.030402405
C 4.249156074 -0.037375495 0.145840804
H 5.932204156 1.053003018 0.297744625
H -1.661479863 -1.644192592 -0.209688074
H 1.750308556 -6.324488472 -0.483623718
H -1.749129424 -6.216097976 -0.601602891

