10

C 3.629774280 -1.906154780 -0.524403686
C 1.903942364 -0.581220343 0.976932867
C -0.396845472 -0.131208825 -0.116341405
C -2.776274998 1.260379578 -0.352341685
N -1.703814037 -0.522262343 -2.195784920
H 5.433723733 -2.052745049 0.515397951
H 2.183879155 0.178763254 2.872118845
H -2.624181449 3.281062382 -0.686485855
H -4.501826138 0.622704726 0.545592278
H -1.080972778 -0.253017321 -3.977110780

