10

C 4.640789776 -0.821370632 -0.017378677
C 2.220067939 -0.494053343 0.264184336
C -0.200310629 0.019194345 -0.493982062
C -2.553897470 1.421263453 -0.320624710
N -2.132822950 -0.829278304 -1.943176669
H 5.597287390 -1.986609511 1.386584012
H 0.948595347 -1.130276508 2.018089060
H -2.575931676 3.287601873 -1.174519437
H -3.906468452 1.110478490 1.184720576
H -1.969902744 -0.680650494 -3.846322816

