11

O 5.148709929 -0.702071428 -0.203015961
C 2.989322834 0.014246759 -0.466699198
N 1.138005601 -1.047558547 1.364811192
C -1.345267966 -0.722219763 0.687644805
C -2.085119705 1.693312508 -0.189213760
O 1.945239740 1.461061255 -2.037280891
H 1.648191082 -2.747474419 2.051643131
H -1.562802428 -0.975043292 -1.530926395
H -2.783398207 -1.972964913 1.460804989
H -0.931446989 3.365640344 -0.062960516
H -3.951207529 1.845599546 -1.025699121

