9

N 4.848465045 -0.749570752 -0.734845269
C 2.859278005 0.089091913 -0.522505815
C 0.356516411 1.129514608 -0.203913808
C -1.843505332 -0.584237102 -0.512911732
N -1.154203294 0.350558596 1.970681255
H 0.193768832 3.105372692 -0.711886665
H -3.574728599 0.183862982 -1.286914054
H -1.450464219 -2.538027323 -0.984392958
H -0.235126886 -0.986565595 2.986689029

