27

C    -4.80018   1.38195   0.31190
N    -3.47419   0.81182   0.51849
C    -2.65983   0.55445  -0.50240
O    -2.93749   0.67496  -1.69099
C    -1.15305   0.22981  -0.13925
N    -0.69985  -0.88154  -1.03171
C     0.29971  -1.42010  -0.37503
C     1.33757  -2.21060  -0.93816
N     2.21841  -2.82298  -1.37883
C     0.03139  -1.26739   1.09672
O     0.59224  -1.74976   2.03472
O    -1.08350  -0.48256   1.15098
C     1.06541   1.09488   0.06812
C     2.36251   0.66402   0.47220
O     2.71816   0.52309   1.64094
O     3.16265   0.33848  -0.57469
C     4.43363  -0.24559  -0.25444
C    -0.25415   1.23848  -0.17349
F    -0.76515   2.52439  -0.46643
H    -5.49581   0.65080  -0.11963
H    -4.74357   2.24865  -0.37282
H    -5.19787   1.72628   1.27813
H    -3.16608   0.62323   1.46581
H    -0.77673  -0.74621  -2.03051
H     4.89949  -0.49276  -1.22103
H     4.31005  -1.16219   0.34211
H     5.06629   0.46562   0.29413
27

C    -4.80063   1.38314   0.31194
N    -3.47534   0.81297   0.51874
C    -2.66256   0.55146  -0.50268
O    -2.93828   0.67592  -1.69159
C    -1.17165   0.20360  -0.13883
N    -0.70011  -0.87884  -1.02965
C     0.29917  -1.42544  -0.37294
C     1.33749  -2.21135  -0.93825
N     2.21900  -2.82308  -1.37939
C     0.03317  -1.27178   1.09463
O     0.59267  -1.74903   2.03679
O    -1.08395  -0.48360   1.14858
C     1.06969   1.10063   0.06857
C     2.36505   0.66267   0.47308
O     2.71909   0.52219   1.64134
O     3.16276   0.33765  -0.57388
C     4.43427  -0.24615  -0.25478
C    -0.23365   1.26740  -0.17499
F    -0.76986   2.52677  -0.46788
H    -5.49589   0.65109  -0.11968
H    -4.74373   2.24897  -0.37284
H    -5.19810   1.72663   1.27810
H    -3.16693   0.62239   1.46580
H    -0.77828  -0.74620  -2.02992
H     4.89950  -0.49281  -1.22121
H     4.31021  -1.16234   0.34200
H     5.06633   0.46558   0.29400
27

C    -4.80109   1.38433   0.31199
N    -3.47650   0.81411   0.51899
C    -2.66529   0.54848  -0.50296
O    -2.93908   0.67688  -1.69218
C    -1.19026   0.17738  -0.13841
N    -0.70037  -0.87614  -1.02760
C     0.29862  -1.43079  -0.37086
C     1.33740  -2.21210  -0.93833
N     2.21959  -2.82319  -1.37996
C     0.03496  -1.27618   1.09254
O     0.59309  -1.74831   2.03887
O    -1.08440  -0.48464   1.14618
C     1.07397   1.10638   0.06901
C     2.36758   0.66131   0.47395
O     2.72002   0.52129   1.64174
O     3.16288   0.33682  -0.57307
C     4.43491  -0.24670  -0.25513
C    -0.21314   1.29632  -0.17649
F    -0.77456   2.52916  -0.46932
H    -5.49596   0.65139  -0.11973
H    -4.74389   2.24928  -0.37285
H    -5.19834   1.72698   1.27806
H    -3.16778   0.62154   1.46580
H    -0.77983  -0.74619  -2.02933
H     4.89952  -0.49287  -1.22139
H     4.31037  -1.16248   0.34189
H     5.06637   0.46555   0.29388
27

C    -4.80154   1.38553   0.31204
N    -3.47766   0.81525   0.51923
C    -2.66803   0.54549  -0.50323
O    -2.93987   0.67783  -1.69277
C    -1.20886   0.15116  -0.13799
N    -0.70063  -0.87343  -1.02554
C     0.29807  -1.43614  -0.36877
C     1.33732  -2.21285  -0.93842
N     2.22018  -2.82329  -1.38052
C     0.03674  -1.28057   1.09046
O     0.59351  -1.74758   2.04095
O    -1.08486  -0.48569   1.14379
C     1.07825   1.11213   0.06945
C     2.37011   0.65996   0.47483
O     2.72095   0.52039   1.64214
O     3.16299   0.33599  -0.57227
C     4.43556  -0.24726  -0.25547
C    -0.19263   1.32524  -0.17799
F    -0.77927   2.53154  -0.47077
H    -5.49604   0.65169  -0.11978
H    -4.74404   2.24960  -0.37287
H    -5.19857   1.72733   1.27803
H    -3.16862   0.62069   1.46579
H    -0.78138  -0.74618  -2.02873
H     4.89953  -0.49292  -1.22158
H     4.31053  -1.16263   0.34178
H     5.06640   0.46551   0.29375
27

C    -4.80200   1.38672   0.31209
N    -3.47881   0.81639   0.51948
C    -2.67076   0.54250  -0.50351
O    -2.94066   0.67879  -1.69336
C    -1.22747   0.12495  -0.13756
N    -0.70089  -0.87073  -1.02348
C     0.29753  -1.44148  -0.36669
C     1.33723  -2.21361  -0.93851
N     2.22077  -2.82339  -1.38109
C     0.03852  -1.28497   1.08837
O     0.59394  -1.74686   2.04303
O    -1.08531  -0.48673   1.14139
C     1.08254   1.11787   0.06989
C     2.37265   0.65861   0.47570
O     2.72188   0.51949   1.64254
O     3.16310   0.33515  -0.57146
C     4.43620  -0.24781  -0.25582
C    -0.17212   1.35417  -0.17949
F    -0.78398   2.53392  -0.47221
H    -5.49612   0.65198  -0.11983
H    -4.74420   2.24992  -0.37288
H    -5.19880   1.72768   1.27800
H    -3.16947   0.61985   1.46579
H    -0.78293  -0.74616  -2.02814
H     4.89955  -0.49297  -1.22176
H     4.31069  -1.16277   0.34167
H     5.06644   0.46548   0.29363
27

C    -4.80245   1.38792   0.31213
N    -3.47997   0.81753   0.51973
C    -2.67349   0.53952  -0.50378
O    -2.94146   0.67974  -1.69395
C    -1.24607   0.09873  -0.13714
N    -0.70115  -0.86803  -1.02142
C     0.29698  -1.44683  -0.36460
C     1.33715  -2.21436  -0.93860
N     2.22136  -2.82350  -1.38165
C     0.04030  -1.28936   1.08629
O     0.59436  -1.74613   2.04511
O    -1.08576  -0.48777   1.13899
C     1.08682   1.12362   0.07034
C     2.37518   0.65725   0.47658
O     2.72281   0.51859   1.64294
O     3.16321   0.33432  -0.57065
C     4.43684  -0.24837  -0.25616
C    -0.15161   1.38309  -0.18099
F    -0.78869   2.53631  -0.47366
H    -5.49620   0.65228  -0.11988
H    -4.74436   2.25024  -0.37289
H    -5.19904   1.72803   1.27796
H    -3.17032   0.61900   1.46578
H    -0.78448  -0.74615  -2.02755
H     4.89956  -0.49303  -1.22194
H     4.31085  -1.16292   0.34156
H     5.06648   0.46544   0.29350
27

C    -4.80290   1.38911   0.31218
N    -3.48112   0.81867   0.51997
C    -2.67622   0.53653  -0.50406
O    -2.94225   0.68070  -1.69455
C    -1.26468   0.07251  -0.13672
N    -0.70141  -0.86533  -1.01937
C     0.29643  -1.45218  -0.36252
C     1.33706  -2.21511  -0.93869
N     2.22195  -2.82360  -1.38222
C     0.04208  -1.29375   1.08420
O     0.59479  -1.74541   2.04718
O    -1.08622  -0.48882   1.13660
C     1.09110   1.12937   0.07078
C     2.37772   0.65590   0.47745
O     2.72374   0.51769   1.64335
O     3.16332   0.33349  -0.56984
C     4.43748  -0.24892  -0.25650
C    -0.13110   1.41201  -0.18249
F    -0.79339   2.53869  -0.47511
H    -5.49627   0.65258  -0.11993
H    -4.74451   2.25055  -0.37291
H    -5.19927   1.72838   1.27793
H    -3.17116   0.61815   1.46578
H    -0.78603  -0.74614  -2.02696
H     4.89957  -0.49308  -1.22213
H     4.31101  -1.16306   0.34145
H     5.06652   0.46541   0.29337
27

C    -4.80336   1.39030   0.31223
N    -3.48228   0.81982   0.52022
C    -2.67895   0.53354  -0.50434
O    -2.94304   0.68166  -1.69514
C    -1.28328   0.04629  -0.13630
N    -0.70167  -0.86263  -1.01731
C     0.29589  -1.45752  -0.36043
C     1.33698  -2.21586  -0.93878
N     2.22254  -2.82370  -1.38278
C     0.04387  -1.29815   1.08212
O     0.59521  -1.74469   2.04926
O    -1.08667  -0.48986   1.13420
C     1.09539   1.13512   0.07122
C     2.38025   0.65454   0.47833
O     2.72467   0.51679   1.64375
O     3.16343   0.33266  -0.56904
C     4.43812  -0.24948  -0.25685
C    -0.11059   1.44093  -0.18399
F    -0.79810   2.54108  -0.47655
H    -5.49635   0.65288  -0.11998
H    -4.74467   2.25087  -0.37292
H    -5.19950   1.72873   1.27790
H    -3.17201   0.61731   1.46577
H    -0.78758  -0.74613  -2.02637
H     4.89959  -0.49313  -1.22231
H     4.31117  -1.16321   0.34134
H     5.06656   0.46537   0.29325
27

C    -4.80381   1.39150   0.31228
N    -3.48344   0.82096   0.52047
C    -2.68168   0.53056  -0.50461
O    -2.94383   0.68261  -1.69573
C    -1.30189   0.02008  -0.13588
N    -0.70193  -0.85992  -1.01525
C     0.29534  -1.46287  -0.35835
C     1.33690  -2.21661  -0.93887
N     2.22313  -2.82381  -1.38335
C     0.04565  -1.30254   1.08003
O     0.59564  -1.74396   2.05134
O    -1.08712  -0.49090   1.13180
C     1.09967   1.14087   0.07166
C     2.38279   0.65319   0.47920
O     2.72560   0.51589   1.64415
O     3.16354   0.33183  -0.56823
C     4.43876  -0.25003  -0.25719
C    -0.09008   1.46986  -0.18549
F    -0.80281   2.54346  -0.47800
H    -5.49643   0.65317  -0.12003
H    -4.74483   2.25119  -0.37293
H    -5.19974   1.72908   1.27787
H    -3.17286   0.61646   1.46577
H    -0.78913  -0.74612  -2.02578
H     4.89960  -0.49319  -1.22249
H     4.31133  -1.16335   0.34123
H     5.06660   0.46534   0.29312
27

C    -4.80427   1.39269   0.31233
N    -3.48459   0.82210   0.52071
C    -2.68442   0.52757  -0.50489
O    -2.94463   0.68357  -1.69632
C    -1.32049  -0.00614  -0.13546
N    -0.70219  -0.85722  -1.01320
C     0.29480  -1.46822  -0.35626
C     1.33681  -2.21736  -0.93896
N     2.22372  -2.82391  -1.38391
C     0.04743  -1.30694   1.07794
O     0.59606  -1.74324   2.05342
O    -1.08758  -0.49195   1.12941
C     1.10395   1.14661   0.07210
C     2.38532   0.65183   0.48008
O     2.72653   0.51499   1.64455
O     3.16365   0.33099  -0.56742
C     4.43940  -0.25059  -0.25754
C    -0.06957   1.49878  -0.18699
F    -0.80752   2.54584  -0.47944
H    -5.49650   0.65347  -0.12008
H    -4.74498   2.25150  -0.37295
H    -5.19997   1.72943   1.27783
H    -3.17371   0.61561   1.46576
H    -0.79068  -0.74610  -2.02519
H     4.89962  -0.49324  -1.22268
H     4.31149  -1.16349   0.34112
H     5.06664   0.46530   0.29300
27

C    -4.80472   1.39389   0.31237
N    -3.48575   0.82324   0.52096
C    -2.68715   0.52458  -0.50517
O    -2.94542   0.68452  -1.69692
C    -1.33910  -0.03236  -0.13504
N    -0.70245  -0.85452  -1.01114
C     0.29425  -1.47356  -0.35418
C     1.33673  -2.21811  -0.93904
N     2.22431  -2.82401  -1.38448
C     0.04921  -1.31133   1.07586
O     0.59649  -1.74251   2.05550
O    -1.08803  -0.49299   1.12701
C     1.10824   1.15236   0.07255
C     2.38785   0.65048   0.48095
O     2.72746   0.51409   1.64495
O     3.16376   0.33016  -0.56661
C     4.44004  -0.25115  -0.25788
C    -0.04906   1.52770  -0.18849
F    -0.81223   2.54823  -0.48089
H    -5.49658   0.65377  -0.12013
H    -4.74514   2.25182  -0.37296
H    -5.20020   1.72977   1.27780
H    -3.17455   0.61476   1.46575
H    -0.79224  -0.74609  -2.02460
H     4.89963  -0.49330  -1.22286
H     4.31165  -1.16364   0.34101
H     5.06668   0.46527   0.29287
27

C    -4.80518   1.39508   0.31242
N    -3.48690   0.82438   0.52121
C    -2.68988   0.52160  -0.50544
O    -2.94621   0.68548  -1.69751
C    -1.35770  -0.05858  -0.13462
N    -0.70271  -0.85182  -1.00908
C     0.29370  -1.47891  -0.35209
C     1.33664  -2.21886  -0.93913
N     2.22490  -2.82412  -1.38504
C     0.05100  -1.31573   1.07377
O     0.59691  -1.74179   2.05758
O    -1.08848  -0.49403   1.12461
C     1.11252   1.15811   0.07299
C     2.39039   0.64912   0.48183
O     2.72839   0.51319   1.64535
O     3.16387   0.32933  -0.56581
C     4.44069  -0.25170  -0.25823
C    -0.02855   1.55662  -0.18999
F    -0.81693   2.55061  -0.48233
H    -5.49666   0.65406  -0.12018
H    -4.74530   2.25214  -0.37298
H    -5.20044   1.73012   1.27777
H    -3.17540   0.61392   1.46575
H    -0.79379  -0.74608  -2.02401
H     4.89965  -0.49335  -1.22304
H     4.31181  -1.16378   0.34090
H     5.06671   0.46523   0.29274
27

C    -4.80563   1.39628   0.31247
N    -3.48806   0.82552   0.52146
C    -2.69261   0.51861  -0.50572
O    -2.94701   0.68644  -1.69810
C    -1.37631  -0.08479  -0.13420
N    -0.70297  -0.84912  -1.00702
C     0.29316  -1.48426  -0.35001
C     1.33656  -2.21962  -0.93922
N     2.22549  -2.82422  -1.38561
C     0.05278  -1.32012   1.07169
O     0.59734  -1.74106   2.05965
O    -1.08894  -0.49508   1.12221
C     1.11680   1.16386   0.07343
C     2.39292   0.64777   0.48270
O     2.72932   0.51229   1.64575
O     3.16398   0.32850  -0.56500
C     4.44133  -0.25226  -0.25857
C    -0.00804   1.58554  -0.19149
F    -0.82164   2.55299  -0.48378
H    -5.49674   0.65436  -0.12023
H    -4.74545   2.25246  -0.37299
H    -5.20067   1.73047   1.27773
H    -3.17625   0.61307   1.46574
H    -0.79534  -0.74607  -2.02342
H     4.89966  -0.49340  -1.22323
H     4.31197  -1.16393   0.34079
H     5.06675   0.46520   0.29262
27

C    -4.80609   1.39747   0.31252
N    -3.48922   0.82667   0.52170
C    -2.69534   0.51563  -0.50599
O    -2.94780   0.68739  -1.69869
C    -1.39491  -0.11101  -0.13378
N    -0.70322  -0.84641  -1.00497
C     0.29261  -1.48960  -0.34792
C     1.33647  -2.22037  -0.93931
N     2.22608  -2.82432  -1.38617
C     0.05456  -1.32452   1.06960
O     0.59776  -1.74034   2.06173
O    -1.08939  -0.49612   1.11982
C     1.12109   1.16960   0.07387
C     2.39546   0.64641   0.48358
O     2.73025   0.51139   1.64616
O     3.16409   0.32766  -0.56419
C     4.44197  -0.25281  -0.25891
C     0.01247   1.61447  -0.19299
F    -0.82635   2.55538  -0.48523
H    -5.49681   0.65466  -0.12028
H    -4.74561   2.25277  -0.37300
H    -5.20091   1.73082   1.27770
H    -3.17709   0.61222   1.46574
H    -0.79689  -0.74606  -2.02283
H     4.89967  -0.49346  -1.22341
H     4.31213  -1.16407   0.34068
H     5.06679   0.46516   0.29249
27

C    -4.80654   1.39866   0.31256
N    -3.49037   0.82781   0.52195
C    -2.69807   0.51264  -0.50627
O    -2.94859   0.68835  -1.69928
C    -1.41352  -0.13723  -0.13336
N    -0.70348  -0.84371  -1.00291
C     0.29206  -1.49495  -0.34584
C     1.33639  -2.22112  -0.93940
N     2.22667  -2.82443  -1.38674
C     0.05634  -1.32891   1.06751
O     0.59819  -1.73961   2.06381
O    -1.08984  -0.49716   1.11742
C     1.12537   1.17535   0.07432
C     2.39799   0.64506   0.48445
O     2.73118   0.51049   1.64656
O     3.16420   0.32683  -0.56338
C     4.44261  -0.25337  -0.25926
C     0.03298   1.64339  -0.19449
F    -0.83106   2.55776  -0.48667
H    -5.49689   0.65495  -0.12033
H    -4.74577   2.25309  -0.37302
H    -5.20114   1.73117   1.27767
H    -3.17794   0.61138   1.46573
H    -0.79844  -0.74604  -2.02224
H     4.89969  -0.49351  -1.22359
H     4.31229  -1.16422   0.34057
H     5.06683   0.46513   0.29237
27

C    -4.80700   1.39986   0.31261
N    -3.49153   0.82895   0.52220
C    -2.70080   0.50965  -0.50655
O    -2.94938   0.68930  -1.69988
C    -1.43212  -0.16344  -0.13294
N    -0.70374  -0.84101  -1.00085
C     0.29152  -1.50030  -0.34375
C     1.33631  -2.22187  -0.93949
N     2.22726  -2.82453  -1.38730
C     0.05813  -1.33331   1.06543
O     0.59861  -1.73889   2.06589
O    -1.09030  -0.49821   1.11502
C     1.12965   1.18110   0.07476
C     2.40053   0.64370   0.48533
O     2.73211   0.50959   1.64696
O     3.16431   0.32600  -0.56258
C     4.44325  -0.25392  -0.25960
C     0.05348   1.67231  -0.19599
F    -0.83576   2.56014  -0.48812
H    -5.49697   0.65525  -0.12038
H    -4.74593   2.25341  -0.37303
H    -5.20137   1.73152   1.27763
H    -3.17879   0.61053   1.46573
H    -0.79999  -0.74603  -2.02165
H     4.89970  -0.49356  -1.22378
H     4.31245  -1.16436   0.34046
H     5.06687   0.46509   0.29224
27

C    -4.80745   1.40105   0.31266
N    -3.49268   0.83009   0.52244
C    -2.70354   0.50667  -0.50682
O    -2.95018   0.69026  -1.70047
C    -1.45073  -0.18966  -0.13251
N    -0.70400  -0.83831  -0.99879
C     0.29097  -1.50565  -0.34167
C     1.33622  -2.22262  -0.93958
N     2.22785  -2.82463  -1.38787
C     0.05991  -1.33770   1.06334
O     0.59904  -1.73817   2.06797
O    -1.09075  -0.49925   1.11263
C     1.13393   1.18685   0.07520
C     2.40306   0.64235   0.48620
O     2.73304   0.50869   1.64736
O     3.16442   0.32517  -0.56177
C     4.44389  -0.25448  -0.25995
C     0.07399   1.70123  -0.19749
F    -0.84047   2.56253  -0.48956
H    -5.49705   0.65555  -0.12043
H    -4.74608   2.25372  -0.37305
H    -5.20161   1.73187   1.27760
H    -3.17964   0.60968   1.46572
H    -0.80154  -0.74602  -2.02106
H     4.89972  -0.49362  -1.22396
H     4.31261  -1.16451   0.34035
H     5.06691   0.46506   0.29211
27

C    -4.80791   1.40225   0.31271
N    -3.49384   0.83123   0.52269
C    -2.70627   0.50368  -0.50710
O    -2.95097   0.69122  -1.70106
C    -1.46933  -0.21588  -0.13209
N    -0.70426  -0.83561  -0.99674
C     0.29042  -1.51099  -0.33958
C     1.33614  -2.22337  -0.93967
N     2.22844  -2.82474  -1.38843
C     0.06169  -1.34210   1.06126
O     0.59946  -1.73744   2.07005
O    -1.09120  -0.50029   1.11023
C     1.13822   1.19260   0.07564
C     2.40559   0.64099   0.48708
O     2.73397   0.50779   1.64776
O     3.16453   0.32433  -0.56096
C     4.44453  -0.25503  -0.26029
C     0.09450   1.73016  -0.19898
F    -0.84518   2.56491  -0.49101
H    -5.49712   0.65584  -0.12048
H    -4.74624   2.25404  -0.37306
H    -5.20184   1.73222   1.27757
H    -3.18048   0.60884   1.46572
H    -0.80309  -0.74601  -2.02047
H     4.89973  -0.49367  -1.22414
H     4.31277  -1.16465   0.34024
H     5.06695   0.46502   0.29199
27

C    -4.80836   1.40344   0.31276
N    -3.49500   0.83237   0.52294
C    -2.70900   0.50069  -0.50738
O    -2.95176   0.69217  -1.70165
C    -1.48794  -0.24210  -0.13167
N    -0.70452  -0.83290  -0.99468
C     0.28988  -1.51634  -0.33750
C     1.33605  -2.22412  -0.93975
N     2.22903  -2.82484  -1.38900
C     0.06347  -1.34649   1.05917
O     0.59988  -1.73672   2.07212
O    -1.09166  -0.50134   1.10783
C     1.14250   1.19834   0.07608
C     2.40813   0.63964   0.48795
O     2.73490   0.50689   1.64816
O     3.16464   0.32350  -0.56015
C     4.44517  -0.25559  -0.26064
C     0.11501   1.75908  -0.20048
F    -0.84989   2.56729  -0.49245
H    -5.49720   0.65614  -0.12053
H    -4.74640   2.25436  -0.37307
H    -5.20207   1.73257   1.27754
H    -3.18133   0.60799   1.46571
H    -0.80464  -0.74600  -2.01988
H     4.89975  -0.49373  -1.22433
H     4.31293  -1.16479   0.34013
H     5.06699   0.46498   0.29186
27

C    -4.80882   1.40463   0.31280
N    -3.49615   0.83352   0.52318
C    -2.71173   0.49771  -0.50765
O    -2.95256   0.69313  -1.70224
C    -1.50654  -0.26831  -0.13125
N    -0.70478  -0.83020  -0.99262
C     0.28933  -1.52169  -0.33541
C     1.33597  -2.22487  -0.93984
N     2.22962  -2.82494  -1.38956
C     0.06526  -1.35088   1.05708
O     0.60031  -1.73599   2.07420
O    -1.09211  -0.50238   1.10544
C     1.14678   1.20409   0.07653
C     2.41066   0.63828   0.48883
O     2.73583   0.50599   1.64857
O     3.16475   0.32267  -0.55935
C     4.44582  -0.25614  -0.26098
C     0.13552   1.78800  -0.20198
F    -0.85460   2.56968  -0.49390
H    -5.49728   0.65644  -0.12058
H    -4.74655   2.25468  -0.37309
H    -5.20231   1.73292   1.27750
H    -3.18218   0.60714   1.46570
H    -0.80619  -0.74598  -2.01929
H     4.89976  -0.49378  -1.22451
H     4.31309  -1.16494   0.34002
H     5.06702   0.46495   0.29174
27

C    -4.80927   1.40583   0.31285
N    -3.49731   0.83466   0.52343
C    -2.71446   0.49472  -0.50793
O    -2.95335   0.69408  -1.70284
C    -1.52515  -0.29453  -0.13083
N    -0.70504  -0.82750  -0.99057
C     0.28879  -1.52703  -0.33333
C     1.33589  -2.22563  -0.93993
N     2.23021  -2.82504  -1.39013
C     0.06704  -1.35528   1.05500
O     0.60073  -1.73527   2.07628
O    -1.09256  -0.50343   1.10304
C     1.15107   1.20984   0.07697
C     2.41320   0.63693   0.48970
O     2.73676   0.50509   1.64897
O     3.16486   0.32184  -0.55854
C     4.44646  -0.25670  -0.26132
C     0.15603   1.81692  -0.20348
F    -0.85930   2.57206  -0.49534
H    -5.49735   0.65673  -0.12063
H    -4.74671   2.25499  -0.37310
H    -5.20254   1.73327   1.27747
H    -3.18302   0.60630   1.46570
H    -0.80774  -0.74597  -2.01870
H     4.89977  -0.49383  -1.22469
H     4.31325  -1.16508   0.33991
H     5.06706   0.46491   0.29161
27

C    -4.80882   1.40463   0.31280
N    -3.49615   0.83352   0.52318
C    -2.71173   0.49771  -0.50765
O    -2.95256   0.69313  -1.70224
C    -1.50654  -0.26831  -0.13125
N    -0.70478  -0.83020  -0.99262
C     0.28933  -1.52169  -0.33541
C     1.33597  -2.22487  -0.93984
N     2.22962  -2.82494  -1.38956
C     0.06526  -1.35088   1.05708
O     0.60031  -1.73599   2.07420
O    -1.09211  -0.50238   1.10544
C     1.14678   1.20409   0.07653
C     2.41066   0.63828   0.48883
O     2.73583   0.50599   1.64857
O     3.16475   0.32267  -0.55935
C     4.44582  -0.25614  -0.26098
C     0.13552   1.78800  -0.20198
F    -0.85460   2.56968  -0.49390
H    -5.49728   0.65644  -0.12058
H    -4.74655   2.25468  -0.37309
H    -5.20231   1.73292   1.27750
H    -3.18218   0.60714   1.46570
H    -0.80619  -0.74598  -2.01929
H     4.89976  -0.49378  -1.22451
H     4.31309  -1.16494   0.34002
H     5.06702   0.46495   0.29174
27

C    -4.80836   1.40344   0.31276
N    -3.49500   0.83237   0.52294
C    -2.70900   0.50069  -0.50738
O    -2.95176   0.69217  -1.70165
C    -1.48794  -0.24210  -0.13167
N    -0.70452  -0.83290  -0.99468
C     0.28988  -1.51634  -0.33750
C     1.33605  -2.22412  -0.93975
N     2.22903  -2.82484  -1.38900
C     0.06347  -1.34649   1.05917
O     0.59988  -1.73672   2.07212
O    -1.09166  -0.50134   1.10783
C     1.14250   1.19834   0.07608
C     2.40813   0.63964   0.48795
O     2.73490   0.50689   1.64816
O     3.16464   0.32350  -0.56015
C     4.44517  -0.25559  -0.26064
C     0.11501   1.75908  -0.20048
F    -0.84989   2.56729  -0.49245
H    -5.49720   0.65614  -0.12053
H    -4.74640   2.25436  -0.37307
H    -5.20207   1.73257   1.27754
H    -3.18133   0.60799   1.46571
H    -0.80464  -0.74600  -2.01988
H     4.89975  -0.49373  -1.22433
H     4.31293  -1.16479   0.34013
H     5.06699   0.46498   0.29186
27

C    -4.80791   1.40225   0.31271
N    -3.49384   0.83123   0.52269
C    -2.70627   0.50368  -0.50710
O    -2.95097   0.69122  -1.70106
C    -1.46933  -0.21588  -0.13209
N    -0.70426  -0.83561  -0.99674
C     0.29042  -1.51099  -0.33958
C     1.33614  -2.22337  -0.93967
N     2.22844  -2.82474  -1.38843
C     0.06169  -1.34210   1.06126
O     0.59946  -1.73744   2.07005
O    -1.09120  -0.50029   1.11023
C     1.13822   1.19260   0.07564
C     2.40559   0.64099   0.48708
O     2.73397   0.50779   1.64776
O     3.16453   0.32433  -0.56096
C     4.44453  -0.25503  -0.26029
C     0.09450   1.73016  -0.19898
F    -0.84518   2.56491  -0.49101
H    -5.49712   0.65584  -0.12048
H    -4.74624   2.25404  -0.37306
H    -5.20184   1.73222   1.27757
H    -3.18048   0.60884   1.46572
H    -0.80309  -0.74601  -2.02047
H     4.89973  -0.49367  -1.22414
H     4.31277  -1.16465   0.34024
H     5.06695   0.46502   0.29199
27

C    -4.80745   1.40105   0.31266
N    -3.49268   0.83009   0.52244
C    -2.70354   0.50667  -0.50682
O    -2.95018   0.69026  -1.70047
C    -1.45073  -0.18966  -0.13251
N    -0.70400  -0.83831  -0.99879
C     0.29097  -1.50565  -0.34167
C     1.33622  -2.22262  -0.93958
N     2.22785  -2.82463  -1.38787
C     0.05991  -1.33770   1.06334
O     0.59904  -1.73817   2.06797
O    -1.09075  -0.49925   1.11263
C     1.13393   1.18685   0.07520
C     2.40306   0.64235   0.48620
O     2.73304   0.50869   1.64736
O     3.16442   0.32517  -0.56177
C     4.44389  -0.25448  -0.25995
C     0.07399   1.70123  -0.19749
F    -0.84047   2.56253  -0.48956
H    -5.49705   0.65555  -0.12043
H    -4.74608   2.25372  -0.37305
H    -5.20161   1.73187   1.27760
H    -3.17964   0.60968   1.46572
H    -0.80154  -0.74602  -2.02106
H     4.89972  -0.49362  -1.22396
H     4.31261  -1.16451   0.34035
H     5.06691   0.46506   0.29211
27

C    -4.80700   1.39986   0.31261
N    -3.49153   0.82895   0.52220
C    -2.70080   0.50965  -0.50655
O    -2.94938   0.68930  -1.69988
C    -1.43212  -0.16344  -0.13294
N    -0.70374  -0.84101  -1.00085
C     0.29152  -1.50030  -0.34375
C     1.33631  -2.22187  -0.93949
N     2.22726  -2.82453  -1.38730
C     0.05813  -1.33331   1.06543
O     0.59861  -1.73889   2.06589
O    -1.09030  -0.49821   1.11502
C     1.12965   1.18110   0.07476
C     2.40053   0.64370   0.48533
O     2.73211   0.50959   1.64696
O     3.16431   0.32600  -0.56258
C     4.44325  -0.25392  -0.25960
C     0.05348   1.67231  -0.19599
F    -0.83576   2.56014  -0.48812
H    -5.49697   0.65525  -0.12038
H    -4.74593   2.25341  -0.37303
H    -5.20137   1.73152   1.27763
H    -3.17879   0.61053   1.46573
H    -0.79999  -0.74603  -2.02165
H     4.89970  -0.49356  -1.22378
H     4.31245  -1.16436   0.34046
H     5.06687   0.46509   0.29224
27

C    -4.80654   1.39866   0.31256
N    -3.49037   0.82781   0.52195
C    -2.69807   0.51264  -0.50627
O    -2.94859   0.68835  -1.69928
C    -1.41352  -0.13723  -0.13336
N    -0.70348  -0.84371  -1.00291
C     0.29206  -1.49495  -0.34584
C     1.33639  -2.22112  -0.93940
N     2.22667  -2.82443  -1.38674
C     0.05634  -1.32891   1.06751
O     0.59819  -1.73961   2.06381
O    -1.08984  -0.49716   1.11742
C     1.12537   1.17535   0.07432
C     2.39799   0.64506   0.48445
O     2.73118   0.51049   1.64656
O     3.16420   0.32683  -0.56338
C     4.44261  -0.25337  -0.25926
C     0.03298   1.64339  -0.19449
F    -0.83106   2.55776  -0.48667
H    -5.49689   0.65495  -0.12033
H    -4.74577   2.25309  -0.37302
H    -5.20114   1.73117   1.27767
H    -3.17794   0.61138   1.46573
H    -0.79844  -0.74604  -2.02224
H     4.89969  -0.49351  -1.22359
H     4.31229  -1.16422   0.34057
H     5.06683   0.46513   0.29237
27

C    -4.80609   1.39747   0.31252
N    -3.48922   0.82667   0.52170
C    -2.69534   0.51563  -0.50599
O    -2.94780   0.68739  -1.69869
C    -1.39491  -0.11101  -0.13378
N    -0.70322  -0.84641  -1.00497
C     0.29261  -1.48960  -0.34792
C     1.33647  -2.22037  -0.93931
N     2.22608  -2.82432  -1.38617
C     0.05456  -1.32452   1.06960
O     0.59776  -1.74034   2.06173
O    -1.08939  -0.49612   1.11982
C     1.12109   1.16960   0.07387
C     2.39546   0.64641   0.48358
O     2.73025   0.51139   1.64616
O     3.16409   0.32766  -0.56419
C     4.44197  -0.25281  -0.25891
C     0.01247   1.61447  -0.19299
F    -0.82635   2.55538  -0.48523
H    -5.49681   0.65466  -0.12028
H    -4.74561   2.25277  -0.37300
H    -5.20091   1.73082   1.27770
H    -3.17709   0.61222   1.46574
H    -0.79689  -0.74606  -2.02283
H     4.89967  -0.49346  -1.22341
H     4.31213  -1.16407   0.34068
H     5.06679   0.46516   0.29249
27

C    -4.80563   1.39628   0.31247
N    -3.48806   0.82552   0.52146
C    -2.69261   0.51861  -0.50572
O    -2.94701   0.68644  -1.69810
C    -1.37631  -0.08479  -0.13420
N    -0.70297  -0.84912  -1.00702
C     0.29316  -1.48426  -0.35001
C     1.33656  -2.21962  -0.93922
N     2.22549  -2.82422  -1.38561
C     0.05278  -1.32012   1.07169
O     0.59734  -1.74106   2.05965
O    -1.08894  -0.49508   1.12221
C     1.11680   1.16386   0.07343
C     2.39292   0.64777   0.48270
O     2.72932   0.51229   1.64575
O     3.16398   0.32850  -0.56500
C     4.44133  -0.25226  -0.25857
C    -0.00804   1.58554  -0.19149
F    -0.82164   2.55299  -0.48378
H    -5.49674   0.65436  -0.12023
H    -4.74545   2.25246  -0.37299
H    -5.20067   1.73047   1.27773
H    -3.17625   0.61307   1.46574
H    -0.79534  -0.74607  -2.02342
H     4.89966  -0.49340  -1.22323
H     4.31197  -1.16393   0.34079
H     5.06675   0.46520   0.29262
27

C    -4.80518   1.39508   0.31242
N    -3.48690   0.82438   0.52121
C    -2.68988   0.52160  -0.50544
O    -2.94621   0.68548  -1.69751
C    -1.35770  -0.05858  -0.13462
N    -0.70271  -0.85182  -1.00908
C     0.29370  -1.47891  -0.35209
C     1.33664  -2.21886  -0.93913
N     2.22490  -2.82412  -1.38504
C     0.05100  -1.31573   1.07377
O     0.59691  -1.74179   2.05758
O    -1.08848  -0.49403   1.12461
C     1.11252   1.15811   0.07299
C     2.39039   0.64912   0.48183
O     2.72839   0.51319   1.64535
O     3.16387   0.32933  -0.56581
C     4.44069  -0.25170  -0.25823
C    -0.02855   1.55662  -0.18999
F    -0.81693   2.55061  -0.48233
H    -5.49666   0.65406  -0.12018
H    -4.74530   2.25214  -0.37298
H    -5.20044   1.73012   1.27777
H    -3.17540   0.61392   1.46575
H    -0.79379  -0.74608  -2.02401
H     4.89965  -0.49335  -1.22304
H     4.31181  -1.16378   0.34090
H     5.06671   0.46523   0.29274
27

C    -4.80472   1.39389   0.31237
N    -3.48575   0.82324   0.52096
C    -2.68715   0.52458  -0.50517
O    -2.94542   0.68452  -1.69692
C    -1.33910  -0.03236  -0.13504
N    -0.70245  -0.85452  -1.01114
C     0.29425  -1.47356  -0.35418
C     1.33673  -2.21811  -0.93904
N     2.22431  -2.82401  -1.38448
C     0.04921  -1.31133   1.07586
O     0.59649  -1.74251   2.05550
O    -1.08803  -0.49299   1.12701
C     1.10824   1.15236   0.07255
C     2.38785   0.65048   0.48095
O     2.72746   0.51409   1.64495
O     3.16376   0.33016  -0.56661
C     4.44004  -0.25115  -0.25788
C    -0.04906   1.52770  -0.18849
F    -0.81223   2.54823  -0.48089
H    -5.49658   0.65377  -0.12013
H    -4.74514   2.25182  -0.37296
H    -5.20020   1.72977   1.27780
H    -3.17455   0.61476   1.46575
H    -0.79224  -0.74609  -2.02460
H     4.89963  -0.49330  -1.22286
H     4.31165  -1.16364   0.34101
H     5.06668   0.46527   0.29287
27

C    -4.80427   1.39269   0.31233
N    -3.48459   0.82210   0.52071
C    -2.68442   0.52757  -0.50489
O    -2.94463   0.68357  -1.69632
C    -1.32049  -0.00614  -0.13546
N    -0.70219  -0.85722  -1.01320
C     0.29480  -1.46822  -0.35626
C     1.33681  -2.21736  -0.93896
N     2.22372  -2.82391  -1.38391
C     0.04743  -1.30694   1.07794
O     0.59606  -1.74324   2.05342
O    -1.08758  -0.49195   1.12941
C     1.10395   1.14661   0.07210
C     2.38532   0.65183   0.48008
O     2.72653   0.51499   1.64455
O     3.16365   0.33099  -0.56742
C     4.43940  -0.25059  -0.25754
C    -0.06957   1.49878  -0.18699
F    -0.80752   2.54584  -0.47944
H    -5.49650   0.65347  -0.12008
H    -4.74498   2.25150  -0.37295
H    -5.19997   1.72943   1.27783
H    -3.17371   0.61561   1.46576
H    -0.79068  -0.74610  -2.02519
H     4.89962  -0.49324  -1.22268
H     4.31149  -1.16349   0.34112
H     5.06664   0.46530   0.29300
27

C    -4.80381   1.39150   0.31228
N    -3.48344   0.82096   0.52047
C    -2.68168   0.53056  -0.50461
O    -2.94383   0.68261  -1.69573
C    -1.30189   0.02008  -0.13588
N    -0.70193  -0.85992  -1.01525
C     0.29534  -1.46287  -0.35835
C     1.33690  -2.21661  -0.93887
N     2.22313  -2.82381  -1.38335
C     0.04565  -1.30254   1.08003
O     0.59564  -1.74396   2.05134
O    -1.08712  -0.49090   1.13180
C     1.09967   1.14087   0.07166
C     2.38279   0.65319   0.47920
O     2.72560   0.51589   1.64415
O     3.16354   0.33183  -0.56823
C     4.43876  -0.25003  -0.25719
C    -0.09008   1.46986  -0.18549
F    -0.80281   2.54346  -0.47800
H    -5.49643   0.65317  -0.12003
H    -4.74483   2.25119  -0.37293
H    -5.19974   1.72908   1.27787
H    -3.17286   0.61646   1.46577
H    -0.78913  -0.74612  -2.02578
H     4.89960  -0.49319  -1.22249
H     4.31133  -1.16335   0.34123
H     5.06660   0.46534   0.29312
27

C    -4.80336   1.39030   0.31223
N    -3.48228   0.81982   0.52022
C    -2.67895   0.53354  -0.50434
O    -2.94304   0.68166  -1.69514
C    -1.28328   0.04629  -0.13630
N    -0.70167  -0.86263  -1.01731
C     0.29589  -1.45752  -0.36043
C     1.33698  -2.21586  -0.93878
N     2.22254  -2.82370  -1.38278
C     0.04387  -1.29815   1.08212
O     0.59521  -1.74469   2.04926
O    -1.08667  -0.48986   1.13420
C     1.09539   1.13512   0.07122
C     2.38025   0.65454   0.47833
O     2.72467   0.51679   1.64375
O     3.16343   0.33266  -0.56904
C     4.43812  -0.24948  -0.25685
C    -0.11059   1.44093  -0.18399
F    -0.79810   2.54108  -0.47655
H    -5.49635   0.65288  -0.11998
H    -4.74467   2.25087  -0.37292
H    -5.19950   1.72873   1.27790
H    -3.17201   0.61731   1.46577
H    -0.78758  -0.74613  -2.02637
H     4.89959  -0.49313  -1.22231
H     4.31117  -1.16321   0.34134
H     5.06656   0.46537   0.29325
27

C    -4.80290   1.38911   0.31218
N    -3.48112   0.81867   0.51997
C    -2.67622   0.53653  -0.50406
O    -2.94225   0.68070  -1.69455
C    -1.26468   0.07251  -0.13672
N    -0.70141  -0.86533  -1.01937
C     0.29643  -1.45218  -0.36252
C     1.33706  -2.21511  -0.93869
N     2.22195  -2.82360  -1.38222
C     0.04208  -1.29375   1.08420
O     0.59479  -1.74541   2.04718
O    -1.08622  -0.48882   1.13660
C     1.09110   1.12937   0.07078
C     2.37772   0.65590   0.47745
O     2.72374   0.51769   1.64335
O     3.16332   0.33349  -0.56984
C     4.43748  -0.24892  -0.25650
C    -0.13110   1.41201  -0.18249
F    -0.79339   2.53869  -0.47511
H    -5.49627   0.65258  -0.11993
H    -4.74451   2.25055  -0.37291
H    -5.19927   1.72838   1.27793
H    -3.17116   0.61815   1.46578
H    -0.78603  -0.74614  -2.02696
H     4.89957  -0.49308  -1.22213
H     4.31101  -1.16306   0.34145
H     5.06652   0.46541   0.29337
27

C    -4.80245   1.38792   0.31213
N    -3.47997   0.81753   0.51973
C    -2.67349   0.53952  -0.50378
O    -2.94146   0.67974  -1.69395
C    -1.24607   0.09873  -0.13714
N    -0.70115  -0.86803  -1.02142
C     0.29698  -1.44683  -0.36460
C     1.33715  -2.21436  -0.93860
N     2.22136  -2.82350  -1.38165
C     0.04030  -1.28936   1.08629
O     0.59436  -1.74613   2.04511
O    -1.08576  -0.48777   1.13899
C     1.08682   1.12362   0.07034
C     2.37518   0.65725   0.47658
O     2.72281   0.51859   1.64294
O     3.16321   0.33432  -0.57065
C     4.43684  -0.24837  -0.25616
C    -0.15161   1.38309  -0.18099
F    -0.78869   2.53631  -0.47366
H    -5.49620   0.65228  -0.11988
H    -4.74436   2.25024  -0.37289
H    -5.19904   1.72803   1.27796
H    -3.17032   0.61900   1.46578
H    -0.78448  -0.74615  -2.02755
H     4.89956  -0.49303  -1.22194
H     4.31085  -1.16292   0.34156
H     5.06648   0.46544   0.29350
27

C    -4.80200   1.38672   0.31209
N    -3.47881   0.81639   0.51948
C    -2.67076   0.54250  -0.50351
O    -2.94066   0.67879  -1.69336
C    -1.22747   0.12495  -0.13756
N    -0.70089  -0.87073  -1.02348
C     0.29753  -1.44148  -0.36669
C     1.33723  -2.21361  -0.93851
N     2.22077  -2.82339  -1.38109
C     0.03852  -1.28497   1.08837
O     0.59394  -1.74686   2.04303
O    -1.08531  -0.48673   1.14139
C     1.08254   1.11787   0.06989
C     2.37265   0.65861   0.47570
O     2.72188   0.51949   1.64254
O     3.16310   0.33515  -0.57146
C     4.43620  -0.24781  -0.25582
C    -0.17212   1.35417  -0.17949
F    -0.78398   2.53392  -0.47221
H    -5.49612   0.65198  -0.11983
H    -4.74420   2.24992  -0.37288
H    -5.19880   1.72768   1.27800
H    -3.16947   0.61985   1.46579
H    -0.78293  -0.74616  -2.02814
H     4.89955  -0.49297  -1.22176
H     4.31069  -1.16277   0.34167
H     5.06644   0.46548   0.29363
27

C    -4.80154   1.38553   0.31204
N    -3.47766   0.81525   0.51923
C    -2.66803   0.54549  -0.50323
O    -2.93987   0.67783  -1.69277
C    -1.20886   0.15116  -0.13799
N    -0.70063  -0.87343  -1.02554
C     0.29807  -1.43614  -0.36877
C     1.33732  -2.21285  -0.93842
N     2.22018  -2.82329  -1.38052
C     0.03674  -1.28057   1.09046
O     0.59351  -1.74758   2.04095
O    -1.08486  -0.48569   1.14379
C     1.07825   1.11213   0.06945
C     2.37011   0.65996   0.47483
O     2.72095   0.52039   1.64214
O     3.16299   0.33599  -0.57227
C     4.43556  -0.24726  -0.25547
C    -0.19263   1.32524  -0.17799
F    -0.77927   2.53154  -0.47077
H    -5.49604   0.65169  -0.11978
H    -4.74404   2.24960  -0.37287
H    -5.19857   1.72733   1.27803
H    -3.16862   0.62069   1.46579
H    -0.78138  -0.74618  -2.02873
H     4.89953  -0.49292  -1.22158
H     4.31053  -1.16263   0.34178
H     5.06640   0.46551   0.29375
27

C    -4.80109   1.38433   0.31199
N    -3.47650   0.81411   0.51899
C    -2.66529   0.54848  -0.50296
O    -2.93908   0.67688  -1.69218
C    -1.19026   0.17738  -0.13841
N    -0.70037  -0.87614  -1.02760
C     0.29862  -1.43079  -0.37086
C     1.33740  -2.21210  -0.93833
N     2.21959  -2.82319  -1.37996
C     0.03496  -1.27618   1.09254
O     0.59309  -1.74831   2.03887
O    -1.08440  -0.48464   1.14618
C     1.07397   1.10638   0.06901
C     2.36758   0.66131   0.47395
O     2.72002   0.52129   1.64174
O     3.16288   0.33682  -0.57307
C     4.43491  -0.24670  -0.25513
C    -0.21314   1.29632  -0.17649
F    -0.77456   2.52916  -0.46932
H    -5.49596   0.65139  -0.11973
H    -4.74389   2.24928  -0.37285
H    -5.19834   1.72698   1.27806
H    -3.16778   0.62154   1.46580
H    -0.77983  -0.74619  -2.02933
H     4.89952  -0.49287  -1.22139
H     4.31037  -1.16248   0.34189
H     5.06637   0.46555   0.29388
27

C    -4.80063   1.38314   0.31194
N    -3.47534   0.81297   0.51874
C    -2.66256   0.55146  -0.50268
O    -2.93828   0.67592  -1.69159
C    -1.17165   0.20360  -0.13883
N    -0.70011  -0.87884  -1.02965
C     0.29917  -1.42544  -0.37294
C     1.33749  -2.21135  -0.93825
N     2.21900  -2.82308  -1.37939
C     0.03317  -1.27178   1.09463
O     0.59267  -1.74903   2.03679
O    -1.08395  -0.48360   1.14858
C     1.06969   1.10063   0.06857
C     2.36505   0.66267   0.47308
O     2.71909   0.52219   1.64134
O     3.16276   0.33765  -0.57388
C     4.43427  -0.24615  -0.25478
C    -0.23365   1.26740  -0.17499
F    -0.76986   2.52677  -0.46788
H    -5.49589   0.65109  -0.11968
H    -4.74373   2.24897  -0.37284
H    -5.19810   1.72663   1.27810
H    -3.16693   0.62239   1.46580
H    -0.77828  -0.74620  -2.02992
H     4.89950  -0.49281  -1.22121
H     4.31021  -1.16234   0.34200
H     5.06633   0.46558   0.29400
