13

O 3.691633634 2.656322629 -0.623361500
C 2.952228814 0.491590444 -0.710944901
N 0.496642173 -0.207905268 -0.572922007
C -1.427506598 1.737561976 -0.377966201
C -2.686970131 2.362464736 1.935676025
C -0.307635583 -2.808931676 -0.728393177
H 4.247082137 -1.131047535 -0.908712110
H -0.406110535 3.612567606 -0.272163137
H -2.566647452 1.862536443 -2.097910335
H -1.558561410 1.542520564 3.495248306
H -1.565555967 -3.099761320 -2.341676029
H 1.340256242 -4.021762703 -0.963041585
H -1.300898595 -3.387459613 0.988064979

