13

C -3.525054692 0.431924798 -0.882749976
C -0.848404487 -0.238034098 -0.344672628
O -0.298438419 -2.824644938 0.021829058
C 0.987018865 1.501526414 -0.005451123
O 1.243918590 3.799822760 -0.007188802
N 3.611573591 0.044463744 0.673852204
H -3.702582386 2.476703121 -1.046758985
H -4.787130091 -0.215576120 0.623322874
H -4.198737293 -0.402473001 -2.657605904
H 4.174698956 0.672042225 2.395098908
H -0.800733840 -3.724002847 -1.472078094
H 3.280565384 -1.854100138 0.675545191
H 4.918935578 0.556380762 -0.630290408

