14

O 1.556542162 -1.358797838 -3.066652015
C 0.829917164 0.711749490 -1.539305781
C -1.993971430 1.219382310 -1.695917930
C -0.793394880 -1.345869560 4.299714582
O 0.538932090 -1.761907808 2.297307943
C 1.771138232 0.387121811 1.152846112
H 0.724066460 -2.846604141 -2.442984322
H 1.852631028 2.334370121 -2.310476481
H -3.078815596 -0.397009254 -1.009414614
H -2.526824271 1.567537911 -3.654374187
H -1.538763373 -3.260789116 4.761998359
H -2.519202230 2.859609369 -0.560395051
H 1.371741819 2.032730412 2.329279199
H 3.785724193 -0.043218263 1.146420948

