14

C 3.892607953 -0.856070028 0.761497097
C 1.185583595 -0.073792293 0.723177136
C 0.218166368 2.253700793 0.982836107
H 1.299007338 3.967003825 1.270671821
C -2.543583968 2.139790597 0.817012186
H -3.784491525 3.757991707 0.967203159
C -3.259686045 -0.257751538 0.455817796
H -5.172030699 -0.948970968 0.260459270
C -0.957765243 -1.903182789 0.362909430
H -0.802704182 -2.916398322 -1.437186266
H -0.979833673 -3.351704350 1.843716415
H 4.246371959 -2.259945336 2.235868960
H 5.129262757 0.755372041 1.106043284
H 4.450670345 -1.715759034 -1.033167810

