16

C 3.723649298 -0.750589749 0.313575730
C 1.218972126 0.117879906 -0.810387581
C -0.935304072 -1.827094535 -0.528960704
C -3.360685047 -0.279025527 -0.102351592
C -2.355859954 2.218973939 0.820268279
C 0.108609533 2.433922519 0.430103234
H 3.523609372 -1.116937763 2.336675530
H 5.193825156 0.677260231 0.066961274
H 4.380035690 -2.488730586 -0.586385286
H 1.527470219 0.535499137 -2.820143213
H -1.066111235 -3.105600083 -2.140814054
H -0.563408540 -2.985501959 1.142293371
H -4.649155556 -1.174585332 1.239023576
H -4.426844187 -0.019064483 -1.858696330
H -3.550138481 3.673612563 1.626246505
H 1.231335659 4.089981721 0.872591224

