15

C -2.532337717 2.390448292 -1.265855306
C -0.737615891 0.293494007 -0.696564766
C 2.063995024 0.160228593 -1.438937608
C 2.525029768 -1.168481781 1.080907073
N 4.546196454 -1.731707774 2.187818572
C -0.239435538 -1.101851682 1.708209691
N -1.529809529 -2.337134602 -0.463173820
H -1.693019543 4.216930045 -0.805930398
H -3.025328089 2.401970878 -3.270869917
H -4.276446403 2.194169072 -0.179766925
H 3.005882504 1.993725369 -1.478851949
H 2.483826236 -0.905967907 -3.149321089
H -1.147693868 -0.985532179 3.537214172
H 4.192422508 -2.442078123 3.942164358
H -3.404892601 -2.358177968 -0.039826621

