17

C -2.599294171 -2.063862289 -0.381725263
C 0.028384102 -1.078538981 -1.120548765
C -0.008297617 1.621838663 -2.200515699
C -0.926017976 3.611831501 -0.337380817
C 1.837996421 -1.397835687 0.919650658
C 3.386559933 -1.691455663 2.632274390
C 5.184309572 -1.751278874 4.425602939
H -3.916846733 -1.804020431 -1.947299277
H -2.519810401 -4.065718016 0.094068185
H -3.338919200 -1.053083955 1.253946629
H 0.760295893 -2.333814353 -2.606048979
H -1.205657910 1.625114956 -3.886496863
H -0.794911272 5.495342260 -1.163978828
H -2.894278454 3.310472359 0.202309241
H 0.220334866 3.598795641 1.380118352
H 1.903468799 2.088203984 -2.824213494
H 5.085005825 -3.477936922 5.571292488

