17

C -2.412708378 -2.183040230 0.133322106
C -0.366613180 -1.463537798 -1.732698595
C 0.343772249 1.347208658 -1.962697124
C -0.714402628 3.210499460 -0.082839301
C 2.345089952 -1.461122671 -1.037642946
C 2.910895156 -1.254143085 1.569387708
C 3.562385041 -1.252775132 3.755180531
H -4.261613527 -1.533052205 -0.514191247
H -2.499086549 -4.235884471 0.307802484
H -2.062703585 -1.416022430 2.011842608
H -0.716840299 -2.299040690 -3.579225524
H 0.288241438 1.949577360 -3.928887747
H 0.037154850 5.095860431 -0.437043575
H -2.770752613 3.300334716 -0.224627625
H -0.226599119 2.687262415 1.849952605
H 2.573682524 1.223706079 -1.804651618
H 4.209373938 -1.278468415 5.658949570

