12

O 4.618288637 -1.341264354 -1.211507557
C 2.795581252 -0.226146549 -1.959284052
C -2.347718674 -1.067003186 1.991490390
C -1.530647623 0.364045968 -0.321974239
O -2.849376539 0.619221394 -2.158102005
C 1.149282466 1.423766490 -0.300723022
H -0.972258157 -2.549559906 2.412403017
H 2.171093324 -0.363976407 -3.951634059
H -2.378666095 0.201536116 3.620708678
H -4.211707598 -1.883790967 1.706443118
H 1.074521688 3.304419945 -1.149905566
H 1.964876810 1.511090526 1.586480677

