12

O 3.314465596 -1.960697548 0.756461846
C 1.603786147 -0.915968243 -0.724259836
C -1.629206100 -1.220255628 0.932539856
C -1.745371155 1.459973397 -0.060112358
O -3.561336375 2.755359452 -0.412660231
C 1.003321872 1.907429891 -0.694869795
H 0.908214715 -2.212373919 1.292815915
H 1.160788952 -1.841274359 -2.533426086
H -1.649769722 -1.220583704 3.009619872
H -3.029709589 -2.526494910 0.188855714
H 1.356499269 2.927184501 -2.446679493
H 1.989237874 2.814082824 0.874982105

