16

C -2.218740425 -0.992728238 2.920148446
C -1.113110651 0.565554759 0.766344093
C 1.791146539 0.802447916 0.850235631
C 2.670052339 0.823637037 -1.921980046
C 0.489441636 -0.405646588 -3.276026961
C -1.550665038 -0.533483045 -1.829037702
H -1.768518959 -0.153816280 4.751904878
H -4.273859594 -1.124621068 2.776459643
H -1.455242921 -2.911949415 2.894120908
H -1.973652112 2.453615770 0.830078811
H 2.426551132 2.449576405 1.914467817
H 2.559702312 -0.870965190 1.789827888
H 2.952899214 2.750718682 -2.626368051
H 4.457327397 -0.172016289 -2.196066093
H 0.587512092 -1.020252099 -5.226674945
H -3.368908285 -1.269001095 -2.422324948

