13

O 5.616165641 0.312443954 -1.548790373
C 3.498735739 0.885922467 -1.290045595
N 1.247706357 0.098828481 -0.557609349
C -0.441195851 2.195077464 -0.913015508
C -2.647375683 -1.047406802 0.607945776
C -0.172883125 -2.226571450 0.473462471
H 1.630984011 3.352913038 -1.718038856
H -0.964072525 3.315868567 0.715614245
H -1.625146609 2.218017133 -2.580543629
H -3.371212655 -0.457921269 2.426350216
H -4.051785481 -1.512238308 -0.802127324
H 0.036123287 -3.753191576 -0.891130136
H 0.686644516 -2.754258139 2.267478635

