19

C 5.149365985 -0.660909149 0.490997221
C 2.999929886 -0.609110811 -1.422726762
C 0.602967406 0.552806591 -0.325404262
C -3.386954527 2.561621461 -0.605347440
C -4.498258109 0.070302933 -0.403895039
C -2.409022353 -1.925625422 0.002477752
O -0.486368431 -1.025846387 1.528920527
H 5.644237636 1.243701782 1.115470126
H 4.616906056 -1.758132495 2.153461424
H 6.839986521 -1.513905821 -0.326882236
H 3.536840195 0.501985317 -3.081089938
H 2.564212370 -2.518180739 -2.083453061
H 1.042571918 2.431175008 0.396034213
H -2.812918998 3.512252931 1.109993057
H -3.850350011 3.782588628 -2.183360311
H -5.692695959 -0.489882339 -1.984984535
H -5.614609943 -0.049340655 1.345359447
H -3.010045250 -3.827645953 0.559154030
H -0.942582579 -0.380741018 -1.928996051

