11

C -3.427127213 0.527902968 0.476527815
C -0.771552424 1.263545096 -0.198427177
O -0.075691260 3.424238389 -0.398296328
N 0.812234845 -0.839921525 -0.658184031
C 3.141367912 -0.516847786 -0.220077769
O 4.842290932 -2.294876225 -0.669886822
H -4.243809982 -0.558186226 -1.074629006
H -4.557612668 2.203422872 0.841356111
H -3.412128400 -0.702451697 2.131932794
H 3.967280028 -3.727867564 -1.390301613
H 3.970197179 1.195709900 0.566475925

