18

C -1.153738270 2.566704068 -0.514271296
C -2.545259229 -1.832828021 -0.239807700
N -0.625463178 0.097688145 0.663516876
C -0.834567969 0.350450825 3.440319051
C 1.856489073 -0.989504818 -0.048362797
O 3.142953524 -1.973018808 1.537207826
C 2.645078324 -0.811202771 -2.776137558
H -3.078114224 3.069733742 0.006957990
H -1.059070191 2.404042963 -2.556415397
H 0.199677703 3.972722628 0.151061872
H -2.411867771 -1.908295821 -2.298004515
H -1.968579029 -3.639935508 0.575652548
H -0.522484839 -1.483195712 4.299435034
H 0.575000461 1.685603181 4.129246999
H -2.747573781 0.984634805 3.828668616
H 3.617117065 -2.558174392 -3.254236019
H 4.006196311 0.731986964 -2.953635999
H 1.104985623 -0.514706443 -4.095965728

