9

O 0.459443670 3.350187940 -0.946849977
C -1.129178936 1.878243960 0.618881318
C -1.903603536 -0.533976207 -0.661661090
N -1.680261757 -2.641468021 0.434366948
H -2.294612797 -4.077721084 -0.688544863
H -2.629356596 -0.309254682 -2.591106801
H -0.255701261 1.424532528 2.437639553
H -2.805233085 3.032085182 0.974378638
H 2.046524732 2.491677481 -1.118771610

