19

C 5.380477279 0.361000183 1.041270823
C 3.217990599 1.031633277 -0.705248832
O 0.867148718 1.199564337 0.600410379
C -0.098920152 -1.076340644 1.318967570
C -2.735980424 -0.691156162 2.333141043
C -3.256060304 -1.403664037 -0.344692527
C -3.951645511 0.585785071 -2.240035938
H 5.063579997 -1.486929055 1.894951652
H 5.555200336 1.760081898 2.545688670
H 7.154402007 0.310007076 -0.011449888
H 3.044287730 -0.353715856 -2.233945464
H 3.494738231 2.889282831 -1.557551219
H -0.850047641 -2.265460729 -0.664686881
H -3.166255189 1.259181190 2.809496723
H -3.339198408 -2.011493254 3.778999811
H -4.067530736 -3.272002770 -0.612079608
H -3.862764586 -0.141520682 -4.167727756
H -5.867054695 1.283033558 -1.908577182
H -2.668363000 2.194639161 -2.083064609

