17

C 3.970923968 0.214013600 0.814689826
C 1.285105605 0.124748191 -0.136853985
C -0.081106063 -2.135566303 -0.020127284
C -2.745752481 -2.288416479 0.898111710
C -3.657099569 -0.533536392 -1.030103468
C 0.114126419 2.230906255 -1.121911484
O 0.760718776 4.646805114 -0.515181407
H 4.065261987 0.507952997 2.859630666
H 5.074650315 1.692345818 -0.108004878
H 4.881663130 -1.603534700 0.452021903
H 0.893737089 -3.902371034 -0.450490734
H -3.000251669 -1.662175849 2.846061922
H -3.478917727 -4.206613501 0.707190677
H -3.992447098 -1.267818391 -2.907784931
H -4.579607285 1.222998887 -0.557580474
H -0.913091380 2.156810680 -2.873278211
H 1.432467091 4.690177144 1.169202712

