12

O 0.200086583 -2.888649867 -2.037072341
C -0.183731816 -1.526324648 0.099638985
C -1.934896891 -1.996085089 1.832976742
C 0.311455362 4.631218596 -0.855884779
O 1.133269891 2.471490350 -1.631762937
C 1.648742334 0.609595601 0.305973059
H -1.065625519 -4.181780062 -2.175100526
H -3.223173362 -3.579808410 1.668078088
H -2.121762458 -0.777410575 3.458516414
H 0.051263640 5.691777438 -2.655170973
H 1.508777539 1.547849233 2.130263240
H 3.567872749 -0.054992731 -0.045588811

