8

C 1.720776332 2.362433102 3.381268171
O 0.181201227 1.479464334 5.226099940
H -0.027759151 -0.310039636 4.964415957
C 2.734958007 0.935186814 1.590091774
O 2.313178751 -1.637489469 1.630866754
H 2.212488247 -2.270943939 -0.061080540
H 3.988739720 1.691305675 0.162628130
H 2.086087415 4.367484847 3.506363089

