17

C -4.748221178 1.381654963 -0.017684057
C -2.752757810 -0.600068641 -0.239769603
N -0.949532443 0.057823257 -1.774583241
C 1.286874030 -1.477344723 -2.233857743
C 3.239079187 -1.316076648 -0.143966215
C 3.314261449 0.815465427 1.651645804
N 2.490404127 -1.687997823 2.463895918
H -6.567576623 0.556002704 -0.537448295
H -4.434149188 3.098430424 -1.157605217
H -4.929841585 1.917916360 1.968029251
H 0.674022487 -3.433555589 -2.445219453
H -0.964426546 1.770051470 -2.669481075
H 2.131005751 -0.870775688 -4.017166492
H 5.007536880 -2.228846435 -0.648816149
H 5.105358553 1.443355636 2.420183548
H 1.900992785 2.288462721 1.455241333
H 0.567278945 -1.769894717 2.564712788

