17

C -4.125889844 -0.213683937 -0.126519602
C -2.694459116 -0.296801802 -2.596486662
N -0.617328682 1.508941681 -2.727659091
C 0.712911936 -0.803530294 -2.033522812
C 1.981788215 -1.116057849 0.485521721
C 4.016466878 0.658614001 1.223269042
N 1.658723395 0.552454913 2.644143193
H -5.637218437 1.153634864 -0.487398805
H -3.097894781 0.410478353 1.560056221
H -5.048876038 -2.012476724 0.265866268
H -0.990300242 -2.304753823 -2.350737776
H -0.643735431 2.677271055 -1.190754698
H 1.902842921 -1.451544311 -3.586684915
H 2.209159476 -3.080555731 1.030113937
H 5.670745769 -0.032013850 2.210148596
H 4.339820466 2.265106330 -0.009449311
H 0.554718106 2.062266869 2.243865430

