14

C -1.962273353 2.380940135 -1.526758472
C -0.689135062 1.250102700 0.783527203
C -1.562901733 -1.468035346 1.183656584
O -0.167659412 -2.706536394 3.088110422
H 1.527937227 -2.869396922 2.458697622
H -3.538821970 -1.500855769 1.780325986
H -1.414178926 -2.490896136 -0.616881195
N 2.060722150 1.240601535 0.455827056
H 2.633119551 2.726449742 -0.597564735
H 2.944574139 1.377822807 2.143234245
H -1.238440255 2.347145388 2.458104097
H -1.496015141 4.380763971 -1.735607111
H -4.014776555 2.226187175 -1.389104434
H -1.355346083 1.393341011 -3.236428770

