16

C -2.020465806 2.828200911 -0.469603178
C -0.427953879 0.628236918 0.474674353
C -1.841480491 -1.886514478 0.300018173
O -0.818361470 -3.800751825 1.808148991
N 1.976678754 0.526674853 -0.916284659
C 4.561745064 -0.942961563 -0.195293444
O 4.456332588 -2.618985874 1.282796284
H -0.943831952 4.584857397 -0.431703171
H -3.694203075 3.069757402 0.708141247
H -2.653654298 2.501345679 -2.410060267
H 0.071711743 0.920047424 2.459923241
H -3.778982463 -1.595592105 0.952841864
H -1.947697499 -2.452603028 -1.701298037
H 1.002969344 -3.805478408 1.642409484
H 1.818625765 0.613724879 -2.831159504
H 4.238567674 1.430039927 -0.673551398

