14

C 3.826915593 0.385833565 -1.190087795
C 1.180935681 1.180411301 -0.427077140
C -0.787987732 -0.807424264 -0.929445165
O -0.340644469 -2.817432987 -1.882312238
C -3.535284176 -0.266340041 -0.143347859
C -4.083956348 2.318615134 0.629250038
N -4.493010453 4.360752603 1.228240137
H -3.983764808 -1.547387611 1.412730602
H -4.754879250 -0.793624879 -1.719261452
H 1.073158478 1.669091094 1.583223167
H 0.583723040 2.903281109 -1.408421573
H 5.173844175 1.890104183 -0.782207399
H 4.414195305 -1.307341314 -0.174328785
H 3.917462009 -0.041597747 -3.203004447

