13

C 3.699679785 0.196894533 0.172966084
C 1.233861014 -1.224464596 -0.174892036
C -1.063621370 0.188073103 0.786654813
C -3.596326506 -1.039184792 0.308817720
H -4.033846103 -0.925678752 -1.707036814
H -3.561206494 -3.039563547 0.812349854
H -5.062547677 -0.064854286 1.369793020
O -0.890017787 2.190372367 1.859079945
H 0.899261930 -1.687615210 -2.165010183
H 1.278771697 -3.049625261 0.802968781
H 4.037018953 0.607495681 2.162962305
H 3.657672855 1.999805298 -0.823357206
H 5.286040956 -0.906450448 -0.544728050

