15

C -2.790465197 -2.344940626 -0.157482745
C -1.190710894 -0.633840258 1.511858284
C 0.651641516 0.976988444 -0.002952640
C 1.546766401 5.034936681 1.881656087
O 1.985837520 2.649778375 1.758128337
C 2.532605944 -0.507022061 -1.364295826
C 4.056650486 -1.747740286 -2.480395911
H -4.082268143 -3.463269680 0.993255585
H -1.614681060 -3.645792336 -1.241954616
H -3.922936640 -1.246981968 -1.489189942
H -2.397263533 0.652715410 2.586287413
H -0.108173045 -1.742559904 2.874543288
H -0.369929026 2.202583437 -1.324162748
H 0.085041701 5.485081840 0.399901632
H 5.424651914 -2.839458331 -3.473093497

