15

O 1.187531543 -4.790728205 -0.588715772
C 0.571651904 -2.624304678 -0.290259079
C -2.105256513 -1.709794585 0.284197235
C -1.780791861 0.859401049 1.585690847
C 1.414312190 1.787942357 -1.930216663
C 0.830592892 1.788612983 0.813799652
C 2.289396095 -0.395940917 -0.303203760
H -3.134881824 -1.570497279 -1.501740804
H -3.085193592 -3.110004789 1.428820373
H -3.258079381 2.208200875 1.082236306
H -1.836841856 0.621258953 3.634646316
H 2.889727257 3.037340416 -2.592221304
H -0.088831206 1.466103460 -3.282653229
H 1.785647758 3.140928909 2.013202852
H 4.288059809 -0.704251548 -0.021344570

