16

C 3.371321389 -1.527926228 -0.003303600
C 0.818940841 -0.332949920 -0.340656677
C -1.525095664 -1.058508546 1.131432642
C -2.805749982 1.385323149 1.675525990
C -1.291221080 -1.727395117 -1.638369080
C -1.475553092 3.243508799 0.610523891
N 0.794219122 2.397111580 -0.430897127
H 4.316020990 -0.751631272 1.657108227
H 3.195830442 -3.568833013 0.231235525
H 4.572842613 -1.186499073 -1.649209021
H -1.490807377 -2.563826280 2.517513779
H -4.510975134 1.602385803 2.771388676
H -0.924716087 -3.687350777 -2.094998116
H -2.496303909 -0.726924652 -2.956067944
H -1.918819346 5.237552058 0.549756422
H 1.397805602 3.221966847 -2.036718962

