11

O 2.880746125 -2.021814938 0.849377752
C 0.557184349 -1.150123640 1.097235648
C 0.242571198 2.186639402 -0.056749817
O -1.900757609 1.207384345 -1.303260922
C -1.452590199 -1.424313490 -0.968140935
H 2.285077749 0.384916670 0.368134277
H -0.232096616 -0.975925114 3.014096161
H -0.217706786 3.485076269 1.472901429
H 1.602370421 3.062277866 -1.368787554
H -3.167735752 -2.420768192 -0.400345944
H -0.641656600 -2.290172715 -2.661234481

