12

O 3.265355432 1.273116087 2.101650273
C 3.441408232 0.269848544 -0.130381824
C 1.151450776 -0.963875105 -1.209626391
C -1.151982148 -0.922103050 0.460421717
C -3.020447720 1.094479917 0.292170821
O -3.493594701 -1.315186209 -0.783359112
H 5.191191256 1.359454725 1.033936569
H 1.688833819 -2.903544613 -1.698018455
H 0.760464059 -0.047332972 -3.024032058
H -0.977641401 -1.909746828 2.252774941
H -4.157935649 1.566288047 1.932792189
H -2.737576090 2.615647332 -1.058461189

