17

C -4.633964935 0.390748573 -1.185468624
O -2.995975540 -0.417464538 0.813939151
C -0.535811169 -0.353578057 0.811259614
C 3.919821408 0.307653139 -0.510419940
C 0.454863088 -1.403072118 3.244585509
C 1.105101293 0.517077766 -1.080204869
C 0.089611625 1.507823019 -3.295549702
H -4.238616712 -0.660723502 -2.904687670
H -6.521368530 0.015310372 -0.454626002
H -4.331158245 2.378923797 -1.598579517
H 4.519870982 -1.632064462 -0.120730388
H 4.494655610 1.460375436 1.107427867
H 4.979972466 0.966654893 -2.145829784
H 1.703299540 -0.038050769 4.154479094
H 1.585886661 -3.087637253 2.868717168
H -1.089178933 -1.883989445 4.510053590
H 1.677443778 2.094535266 -4.516152908

