16

C 3.181666945 0.635910812 1.079394082
C 1.387783307 0.559737899 -1.172466647
C -1.268049070 -0.242877353 -0.501364429
C -1.655559370 -3.007544443 0.043169357
C -3.236028054 1.508913184 0.382909554
O -3.187400280 0.881691521 -2.098231438
H 3.367635819 -1.215017553 1.970862744
H 2.515017602 1.964525774 2.511494000
H 5.064471154 1.232118233 0.489034911
H 2.116174973 -0.750316929 -2.599701804
H 1.275609732 2.424520980 -2.057554024
H -1.065484545 -4.145268739 -1.575578621
H -0.532568758 -3.578704810 1.676235960
H -3.633436702 -3.400278929 0.449352816
H -1.424728474 3.913651830 0.488081770
H -3.080816665 3.667646433 1.109396640

