13

O -4.075052394 -3.977275942 0.368670638
C -2.188504051 -2.338627599 0.922330686
C 1.587394511 4.387878866 -0.609621320
N 1.904898981 2.203068964 -1.482545948
C 1.758490749 0.090700145 0.268564494
C -0.240036225 -1.742893838 -0.535435756
H -3.810207598 -4.666297450 -1.290388051
H -2.446343197 -1.526281524 2.786797919
H 1.207778466 4.766014084 1.395321841
H 1.682709160 6.007293104 -1.874683205
H 1.404633920 0.713719435 2.220450627
H 3.607722216 -0.836487590 0.236597849
H -0.051168190 -2.568252661 -2.407063199

