13

O -3.767281090 -1.670152402 0.863065738
C -1.907851527 -0.351118068 -0.384671327
C -0.120383208 2.593602071 0.549575726
N 1.629292498 2.015073246 -1.185257409
C 2.753922127 -0.332048180 -0.386713044
C 0.373460319 -1.688637571 -0.912321846
H -2.997347367 -2.751923552 2.099987182
H -2.827508648 0.770238838 -1.824833364
H 0.265690939 2.244408802 2.558209825
H -1.307346227 4.225975484 0.175524660
H 3.404760830 -0.381359601 1.595258002
H 4.293463500 -0.924046538 -1.623422291
H 0.282484481 -3.641642403 -1.557173463

