13

C 3.811779662 -0.681151328 0.155020791
C 1.067049635 -0.119997855 0.014977138
N -0.590359947 -1.199622635 -1.311944063
C -2.950197850 0.180281705 -0.795689953
C -2.474004668 2.105236822 1.279308625
O -4.971276268 -1.406994112 -0.266381672
N -0.013291691 1.862357675 1.530053682
H 4.252296100 -2.272329241 -1.066412325
H 4.352023221 -1.139865961 2.093880646
H 4.919100362 0.955799455 -0.440063830
H -3.295690430 1.353756275 -2.492509112
H -5.018653875 -2.678954216 -1.559548112
H 1.022666658 2.917935010 2.733407071

