13

C 3.657861374 -0.763094955 0.165547284
C 0.982274424 -0.017443098 -0.238599674
N -0.308286972 -0.546226791 -2.302087665
C -2.589832539 0.608359626 -1.904040120
C -2.791578888 1.985779278 0.483985109
O -4.489869766 -0.585516031 0.581019125
N -0.373335276 1.280775600 1.478612805
H 4.442074019 -1.490336514 -1.587353277
H 3.780162673 -2.226834708 1.614363378
H 4.768902247 0.851759393 0.805596181
H -3.976742680 0.670190142 -3.399041612
H -3.424515082 -1.932554613 1.200962904
H 0.375830924 2.102917769 3.016763264

