10

C -2.681423842 0.306949121 -0.044214017
C -0.109916279 0.289186376 1.164314765
O 3.616680311 -2.079267129 -1.134166641
C 2.154562737 -0.309366686 -0.165355647
N 1.982522014 2.027087633 0.051425419
H -2.530802239 0.471246182 -2.093160093
H -3.794624274 1.896637477 0.656368061
H -3.707307891 -1.430014680 0.395272332
H -0.102127433 0.167528775 3.218604949
H 5.038973117 -1.275014506 -1.947410525

