17

C 3.696303922 -0.524763717 0.350124526
C 1.064277766 -1.643121741 0.356017429
C -1.119782254 -0.382550695 1.749676859
C -2.748761266 -0.534593826 -0.474558682
C -0.609668091 -1.619357093 -2.068662836
C -2.094623062 2.164374516 0.532796508
C -0.437447901 3.738110975 -0.821352226
H 3.673087805 1.376003114 -0.440936524
H 4.461982567 -0.444412430 2.266448848
H 4.965645035 -1.694544893 -0.782827286
H -1.577605730 -0.555494821 3.735541590
H 1.145044018 -3.585367077 1.061510754
H -4.745576053 -0.947076272 -0.610227242
H 0.047783218 -0.401875356 -3.588562925
H -1.025872031 -3.503545602 -2.786742625
H -3.637087936 2.868577574 1.704649353
H -0.911503236 5.715910186 -0.348365625

