15

C -4.141340414 0.392180343 -0.393584863
C -2.193500525 -1.148344897 0.889714164
C -0.608365408 -0.061363243 3.029213403
O -2.231229077 -0.235972123 4.649484708
C 1.938366296 0.761730630 2.698681860
C 2.474118033 0.179259628 0.329845799
C 4.789684718 0.400671109 -1.246325194
H -5.953379690 0.260569535 0.591658529
H -4.438763370 -0.404635036 -2.276917345
H -3.587190984 2.366737785 -0.559478855
H 0.750495622 -0.739370426 -0.753551460
H -2.586880598 -3.161233374 1.050759648
H 4.417820480 1.550306236 -2.921534163
H 6.314759349 1.256412061 -0.163983384
H 5.392857744 -1.459663614 -1.910398802

