17

C 3.879511055 1.040372769 0.204631450
O 1.261549621 1.085620522 -0.249644084
C -0.030996025 -1.245924723 0.286868967
C -0.405514005 -1.634644826 3.126151837
C -2.615502844 -1.388651807 -0.834154459
C -3.629989426 1.110258280 -1.518246579
O -2.239795244 0.492986838 -3.801615014
H 4.778279918 -0.573460013 -0.736177129
H 4.308800234 0.951897719 2.226858915
H 4.668223667 2.782771857 -0.557251076
H 1.132845402 -2.788946707 -0.467052558
H 1.408544784 -1.605175870 4.102144679
H -1.589933415 -0.138121462 3.909812360
H -1.305831158 -3.450136707 3.483371547
H -5.633400472 1.197498053 -1.957693167
H -2.942380356 2.849867509 -0.648722003
H -0.547823818 1.136617333 -3.488372481

