14

C 3.849391145 -0.754805615 0.215568353
C 1.238619571 0.153221470 -0.497563868
O -0.458313954 -1.919639147 -0.766820097
C -2.909148388 -0.863948183 -0.720359555
C -2.605413709 1.473309912 0.958514576
C 0.063177702 2.281098836 0.810284950
H 4.539122359 -2.116138596 -1.166565353
H 5.143304991 0.841278178 0.315384122
H 3.784210806 -1.675167301 2.057655748
H 1.346924292 1.218460313 -2.340986033
H -3.503053839 -0.314011122 -2.634006626
H -4.225999446 -2.273649819 -0.000295440
H -4.009774261 2.965963419 0.767504499
H -2.624149758 0.913038204 2.975090608

