13

C 3.017155817 0.409353342 0.128051074
C 0.326308194 -0.365430344 -0.089368758
N -1.696166844 1.144992845 -0.335194442
C -1.512131595 3.554540239 -0.432693463
C -2.226784706 -4.009215507 -0.181241989
O -0.107999379 -2.812310110 -0.028565402
H 3.322287173 1.635789037 1.768122551
H 3.645306147 1.458701327 -1.542865061
H 4.215957309 -1.249415047 0.332561657
H 0.283112475 4.568506731 -0.332406926
H -3.226773763 4.661850452 -0.625845829
H -3.966262939 -2.966476159 -0.388929409
H -2.057973544 -6.034815548 -0.076386131

