9

N -2.935603533 -0.818996002 -0.027617535
C -1.374579470 0.944114409 -0.338329384
C 1.429248132 0.562085543 -0.017355283
C 2.157668899 -2.005520605 0.675416520
N 2.818845954 -3.993844739 1.220235748
H -4.738033079 -0.218877661 -0.320822395
H -1.899019495 2.879022998 -0.858277512
H 2.129421518 1.866268179 1.425773473
H 2.390205840 1.076994357 -1.773857983

