19

C -3.161268410 -1.855823928 -1.156172710
C -1.382667800 0.087913593 0.025328528
C -2.800869878 1.955433376 1.703052534
C 0.618859435 -1.265182034 1.546183099
O 2.349834789 -2.791788912 0.273610687
C 4.033147830 -0.879358975 1.167316671
C 4.570163076 1.000567842 -0.906831663
H -4.584713835 -0.918117806 -2.318283998
H -2.121443529 -3.180062549 -2.343548351
H -4.149362529 -2.936254185 0.302335525
H -0.466805798 1.126367968 -1.503671537
H -3.704094941 0.990729210 3.291872220
H -4.281619811 2.914682678 0.636450801
H -1.539506735 3.398364561 2.469500997
H -0.119065861 -2.226832006 3.224301566
H 2.098068657 0.131434005 2.655376896
H 3.188674654 1.134941788 -2.436720069
H 6.333272769 0.291735258 -1.726014313
H 4.991862207 2.861216789 -0.126160044

