15

C -2.631935808 0.616527306 -1.624385692
C -3.024886100 -0.068486056 1.106260772
C -0.431531130 -0.032671248 0.002796984
C 1.434174742 -2.239800516 -0.107956255
C 3.486276397 -0.534211025 1.030484777
O 3.384924375 1.940368517 -1.229577326
C 1.691304201 1.663272949 0.853116424
H -3.188829328 -0.748543232 -3.042484496
H -2.877541830 2.570269150 -2.178854486
H -3.538139004 1.426480477 2.406243870
H -3.854307457 -1.888660281 1.538226615
H 1.000268226 -3.757376998 1.224467885
H 1.876724828 -3.060419774 -1.944137765
H 5.072972635 0.994787718 -0.391064252
H 1.527079159 3.308395626 2.070733825

