12

N 5.284516098 2.299647538 0.514659427
C 3.669123084 0.855838159 0.539045265
C 1.611776135 -0.988064356 0.511728575
O -0.194558851 -0.620258759 2.509736290
C -2.215116497 -0.549201371 0.762595689
C -1.753742037 1.789667659 -1.690121535
C -0.477153919 -0.649004214 -1.518616644
H 2.393329104 -2.895272715 0.590087656
H -3.742551038 -1.900662896 0.998497061
H -3.324432900 1.376017041 0.575304782
H -0.697332127 3.237705280 -0.639022360
H -0.686430750 -2.043854644 -3.000301028

