13

C -3.975362046 -1.901035285 -1.117578569
C -2.095309694 -0.858098177 0.711563730
C 3.785385195 0.616443156 0.407094817
C 1.312439984 1.921804547 0.968594205
O -0.689433166 0.760192657 -0.474950536
H -5.854094821 -1.731265521 -0.277418334
H -3.935304255 -1.049250041 -3.001970639
H -3.617718735 -3.934468014 -1.248943258
H 5.322217268 1.558617610 1.408541269
H 4.201550623 0.660752906 -1.611649297
H 3.710196961 -1.349270784 1.025317472
H 0.799585831 1.783165791 2.959060269
H 1.338452479 3.897869518 0.382147919

