13

C -2.543507869 -1.624279886 -0.453773093
C -0.178106328 -0.569115948 -1.666887692
C 2.442636405 -0.361788142 0.681984376
C 0.449303683 2.369293356 -0.058017880
O -0.610597610 2.008743589 -2.363161629
H -2.160954887 -3.435734708 0.453263208
H -3.555376916 -0.392144230 0.870030248
H -3.813624356 -1.980430616 -2.043746665
H 2.830607364 0.543452333 2.519009724
H 4.139753555 -0.306360793 -0.466929877
H 2.004821633 -2.310106850 1.172514230
H -0.853214255 2.554098839 1.522165247
H 1.997708590 3.716530700 -0.077585824

