19

C 4.982229574 -0.373762278 0.279766753
C 2.810487374 0.774790602 -1.217822020
C 0.290114723 0.581399149 0.128607541
C -1.958485718 1.690944756 -1.283616974
C -4.158942987 0.239789823 -0.118001699
C -2.994679074 -2.366888056 0.337134454
O -0.337069428 -2.011071694 0.494456270
H 5.213465741 0.578944432 2.097702881
H 4.628721569 -2.369042665 0.654442771
H 6.764057911 -0.216471076 -0.746586856
H 3.185493886 2.773912065 -1.598215272
H 2.636569548 -0.166986991 -3.051111739
H 0.447166422 1.497378182 1.993228994
H -2.109295444 3.733346314 -1.057183527
H -1.787641967 1.271593251 -3.300989638
H -5.826458692 0.159329235 -1.324313870
H -4.715442991 1.106047762 1.671099344
H -3.677298738 -3.240179461 2.081351194
H -3.392991710 -3.663073390 -1.225989001

