14

C 3.276668315 0.675798225 1.283016891
O 1.514877499 2.589342911 0.741855095
C -1.645531709 0.123474403 -1.495900529
C -1.813990229 -2.622986972 -1.294305095
O -4.019309668 -1.105493052 -1.366262010
C -1.007585775 1.766669257 0.746185516
H 3.371303550 -0.751803785 -0.214891453
H 5.118605685 1.578485208 1.450884192
H 2.827778860 -0.273465575 3.072993577
H -1.197796290 0.941411610 -3.329776139
H -1.430866247 -3.520896387 0.513732611
H -1.497307865 -3.791780917 -2.951514970
H -1.465984370 0.739878441 2.493926822
H -2.169114139 3.471122645 0.687938506

