17

C 4.313820272 -1.059713700 -1.040378192
C 1.817628972 -0.920444191 0.313955149
C 1.203999259 1.251526325 2.022898356
C -2.823996157 0.258167901 -0.633739177
O -3.357380275 -0.591078061 -3.005275827
C -4.517292470 0.362158415 1.220558533
C -0.133758368 1.001400512 -0.457756655
H 5.766771692 -1.895109539 0.164678142
H 4.959402060 0.822992489 -1.589319197
H 4.170125120 -2.200093383 -2.754008657
H 1.041463859 -2.724296418 0.902963072
H 2.579287981 2.756967288 2.194722894
H 0.158200747 0.864763600 3.735911240
H -5.121274507 -1.005773622 -3.107791995
H -6.443985738 -0.280201541 0.953680997
H -4.012815303 1.108698217 3.049666400
H 0.442573065 2.283612380 -1.950958882

