17

C 4.434593727 0.063518608 -0.578118962
C 1.891896645 -1.231545551 -0.402801851
C 0.096129348 -0.460321240 1.699262972
C -2.468666192 -0.262272198 -0.111185835
O -3.903667349 -2.470705546 -0.183288732
C -3.696890587 2.055260974 0.124668728
C -0.241183137 -0.219469731 -1.925272194
H 5.743635076 -0.634062093 0.856081839
H 4.235072134 2.104598567 -0.329963680
H 5.294087996 -0.264086259 -2.425896549
H 2.068688896 -3.281970679 -0.549116882
H 0.548356305 1.335671199 2.576692083
H -0.393699172 -1.916818939 3.064683204
H -5.250462950 -2.256296067 1.019662410
H -5.590067257 2.323431801 -0.612801011
H -2.711275373 3.678148378 0.868857295
H -0.021164857 1.460546059 -3.092029770

