10

O -4.649710587 0.909059442 -0.755292238
C -3.280464529 -0.733279707 -1.513888700
C -0.624522623 -0.913726385 -0.842558468
N 1.230691868 -2.177784126 -1.175927434
O 3.419050127 -2.345369461 -0.629671144
C 3.015231698 1.488097472 1.971335988
C 0.793320784 1.948489993 1.620903569
H -3.935580874 -2.244818400 -2.791122368
H 4.967310148 1.204917950 2.365809873
H -0.998110253 2.884312039 1.736366497

