13

O 2.784233598 1.420998513 1.556454630
C 1.554177850 0.486147409 -0.631647382
C 0.426540042 -2.214568760 -0.600091035
C -2.269601308 -1.168710665 -1.170768747
N -2.524198987 0.598813731 1.199328026
C -1.082416662 1.484533827 -0.970983461
H 4.334194524 0.508548468 1.784533462
H 2.685864793 0.833502088 -2.326505346
H 0.626491737 -3.258988000 1.172368646
H 1.117926543 -3.397050256 -2.136412957
H -1.561947195 0.367143191 2.839413979
H -4.278088405 1.305488909 1.394388259
H -1.637917662 3.275083515 -1.798348815

