10

C -2.145500423 0.540874520 0.022863834
C 0.257817357 -0.861223878 -0.744337723
C 2.519142439 0.071862845 0.700494867
O 3.938430297 -1.238351778 1.887321637
H -3.741242346 -0.059172730 -1.133143128
H -1.932320778 2.580619558 -0.213065940
H -2.617784612 0.175469612 1.996876657
H 0.088302442 -2.895486462 -0.460122479
H 0.643703155 -0.526614344 -2.751904220
H 2.821128876 2.152074913 0.617605753

