11

C -3.464430123 -0.974604933 0.969153262
N -1.502212026 0.621537914 -0.072832161
C -1.642791209 2.862570305 -0.912457944
C 0.936411602 3.936321552 -1.891943737
O 0.812355939 6.091346365 -2.709973692
O 2.636328249 2.337420026 -1.634795702
H -3.418286262 3.893102551 -0.928430930
H 0.378599184 0.047019447 -0.256855184
H -5.264227262 0.017798026 0.931020818
H -2.982852374 -1.466045294 2.909692308
H -3.596672401 -2.701203870 -0.143999058

