16

C -4.722857520 -0.182036713 0.757176427
N -2.344471596 -0.888561224 -0.397608146
C -0.126149083 0.240119259 0.314504549
C 1.474033734 1.574318532 -1.763505194
O 0.357820681 2.448026187 -3.582167601
O 3.788791087 1.554884721 -1.213765213
C 4.415547423 -1.175453737 1.650103032
H -4.540396223 -0.237538857 2.809641986
H -6.180000523 -1.535417311 0.223602789
H -5.338598643 1.712813215 0.195555908
H -2.435076896 -1.234102143 -2.271183292
H 1.528187370 -1.127077712 0.949860216
H -0.360235392 1.481004782 1.950317736
H 5.357715358 0.439758809 2.458262777
H 5.423590058 -2.118192671 0.149061257
H 3.601324850 -2.442310711 3.054253559

