13

O -0.967035672 2.859822284 1.759758680
C -2.464676432 -0.212882108 -0.127206007
C -0.601995614 -1.619039827 -1.354115493
C 2.592521620 -0.499002781 -0.329756169
O 2.805420489 1.881625398 -0.639834507
H -0.670464190 2.370497773 3.480147391
H -3.537248017 1.212808482 -1.115631905
H -3.330494650 -0.916446173 1.587547843
H -0.440769378 -1.319183320 -3.374027307
H -0.419925547 -3.570980290 -0.748558161
H 2.505896971 -1.250845022 1.615129454
H 3.704163123 -1.737748340 -1.570476625
H 0.809548052 2.760283682 0.821752753

