13

N -2.282097368 3.699591781 -1.562758983
C -2.434401923 0.058750489 0.324296807
O -1.731547582 -2.224876631 0.429809344
C 1.002710640 -2.683831826 0.054314508
C 2.484675366 -0.419907935 0.977195539
C -0.736260069 2.095526408 -0.438137821
N 1.709433969 1.887205778 -0.268104932
H -1.280457238 4.855696498 -2.735160737
H -4.429126315 0.399885361 0.658433437
H 1.236397669 -2.986838544 -1.970714419
H 1.349112424 -4.427863486 1.087316740
H 2.314923706 -0.315472674 3.050956932
H 4.478897392 -0.785868460 0.582295351

