13

N -1.046465813 1.664324487 -2.150039904
C -2.227520905 0.684219109 0.173137048
O -2.119415154 -1.896190027 0.455857877
C 0.374521344 -2.608004581 -0.152186864
C 2.123397487 -0.475316066 0.857208796
C 0.310272715 1.902463105 0.242610353
N 1.866589149 3.464691510 1.293369019
H -1.805514392 3.325922817 -2.724573092
H -3.949857641 1.505199588 0.911675635
H 0.609937698 -2.780856469 -2.191343781
H 0.783630987 -4.402946975 0.772522912
H 2.378169135 -0.609212232 2.885073674
H 3.921671053 -0.413647178 -0.129930066

