10

C 2.872512702 0.046391624 -0.230584004
H 3.518217341 -1.449867651 -1.477050549
H 3.411727986 1.962771315 -0.718008735
O 2.882746760 -0.539288586 2.366674252
C 0.529388897 -0.384878914 1.205418500
C -1.579086500 1.328646634 1.765235427
H -2.051642073 2.716532100 3.187990006
O -3.245913457 -0.375566079 0.999957498
C -1.518350438 -2.295796502 0.604655914
H -1.760424260 -3.278273732 -1.187140389

