14

C -2.733654247 -1.812446682 -0.703255832
C -3.134109077 0.664213807 -0.192152568
C 0.273731364 2.844749810 0.671616583
C 2.401274420 1.891918906 0.683519401
C 3.071411347 -1.734422290 -0.060426676
O 1.232178458 -3.104559108 -0.564096023
H -2.923266116 -3.235096532 0.745127061
H -2.549219075 -2.482284295 -2.620124660
H -3.473263875 1.964663441 -1.735038586
H -3.846611509 1.204384064 1.648553116
H -1.002732051 4.388467043 0.890578525
H 4.326871080 2.428675826 1.014851904
H 3.981490844 -1.914466608 1.805001747
H 4.347442903 -1.153593536 -1.601513014

