16

C -2.780488444 1.188306898 -0.532199184
C -1.169907466 -0.357889996 1.262537683
C -0.735024661 -3.118418322 0.486887539
O 1.867568538 -2.642380532 -0.093309612
C 1.733794806 -0.154317624 1.001041559
C 2.913232199 1.842577023 -0.651767485
H -2.615044547 3.209778964 -0.149544856
H -4.769479558 0.673429661 -0.335608500
H -2.246054470 0.864993750 -2.498855322
H -1.831579554 -0.115106733 3.199448058
H -1.783536744 -3.774399140 -1.170237375
H -0.940969981 -4.501300814 2.012292608
H 2.664541142 -0.157284268 2.854586325
H 4.920116166 1.438741095 -0.902923879
H 2.739357062 3.703363485 0.225878264
H 2.033475512 1.899906533 -2.513773822

