14

C -3.895915579 0.287291529 0.595445124
C -1.233869726 0.554194085 -0.317521251
N 0.463982452 -1.699465437 0.247576950
C 0.955746222 0.799926227 1.395307101
C 3.078780863 1.331697880 -0.463978068
C 1.828476756 -0.728931749 -2.085192535
O 2.136235039 -1.746153823 -4.061941852
H -4.782550907 2.147624343 0.639365194
H -4.056273921 -0.539174787 2.499016327
H -4.997945217 -0.876769673 -0.702483879
H -0.070618593 -3.362958784 1.015192508
H 0.960093801 0.983199010 3.432223653
H 4.966506429 0.729219195 0.133932279
H 3.103393185 3.215256524 -1.280246798

