19

C 4.343345826 0.017830397 -0.373312051
C 2.094896506 -0.035495690 -2.168989908
C -0.413113293 -0.027559369 -0.813907820
C -1.441986662 2.439440273 0.116369354
C -2.656980102 1.101453347 -2.103669181
C -2.395470825 -2.370940744 2.546955599
O -0.638755511 -2.275291954 0.568953979
H 4.309970503 1.714925986 0.802541438
H 4.315659335 -1.621417046 0.874536016
H 6.123907196 0.002845058 -1.413883487
H 2.157499787 1.591410311 -3.440379730
H 2.171766539 -1.726335150 -3.356095129
H -1.890164579 -1.088722035 4.091984869
H -2.510310143 2.494793016 1.857196965
H -0.332724173 4.122932252 -0.234215755
H -2.413529482 1.870810344 -3.983311916
H -4.487051598 0.248135950 -1.773670069
H -2.367734464 -4.301922046 3.259004119
H -4.325321032 -1.939400524 1.923572423

