19

C 4.805665999 -0.570241696 0.302905429
C 2.832097356 0.816633712 -1.275961977
C 0.194257591 0.273750111 -0.396284885
C -1.998540863 2.072075549 -1.188880997
C -4.420593672 0.961822220 -0.586405411
C -2.183359234 -2.338798675 1.325918587
O -0.495515859 -2.227343026 -0.724561776
H 4.670419831 -0.026467032 2.288727887
H 4.532083734 -2.609398178 0.180066598
H 6.711434670 -0.137280968 -0.352798016
H 3.140352089 2.857448958 -1.194966690
H 3.023044354 0.256103357 -3.265032837
H -1.455311045 -0.160387689 2.011293699
H -1.662880982 3.942032758 -0.395142583
H -1.774282510 2.182508026 -3.249644343
H -5.184706830 -0.457641401 -1.844269462
H -5.792549163 1.997514969 0.525987862
H -1.240977137 -3.262822859 2.917922424
H -3.936111414 -3.339736318 0.932371935

