14

C 3.285028123 1.973490068 -0.935395818
N 2.970692478 -0.692729586 -1.214979362
C 1.373090139 -2.045561293 -0.245551069
N 0.468521367 -4.134148192 0.479304012
C -2.295519450 -0.087051122 0.479623432
O -3.569071345 -1.930961876 1.432007132
N -3.636342099 2.006649489 0.205659045
H 4.749485178 2.397399007 0.457372190
H 1.521850759 2.851381917 -0.289625530
H 3.856040789 2.809302176 -2.730725512
H -2.271485988 -3.378571399 1.367465652
H 1.765039104 -5.343148744 1.185739573
H -2.840830385 3.547136292 -0.554597976
H -5.488238212 2.077705478 0.674927024

