16

C 4.877493809 -0.197524530 -0.417623653
C 3.278837607 1.935707904 0.340331209
O 0.838814523 1.694615020 0.249746715
C -0.476153441 -0.270944793 -0.440218542
C -4.237511884 -0.741574508 2.499488154
C -3.267323260 -0.094717968 -0.153662740
H 6.870451552 0.285935764 -0.266802325
H 4.474743661 -0.778145169 -2.380307077
H 4.511042200 -1.881868870 0.753068068
H -3.435146700 0.543993248 3.899277836
H 3.903811044 3.791654872 0.894698638
H 0.516805891 -1.996226157 -0.899496426
H -3.706312327 -2.663846989 3.029860219
H -6.294901502 -0.594054493 2.599472221
H -4.139706822 -1.366317247 -1.529294976
H -3.878553078 1.815047058 -0.659883991

