16

C 3.994406876 -0.346054112 0.558805489
C 2.074809907 1.730438558 0.787236981
O 0.243262649 1.837828557 -1.163296770
C -1.052104113 -0.204047525 -1.481367099
C -2.510490461 -0.573424826 2.052628964
C -3.689484732 -0.191347998 -0.554442300
H 5.426985877 -0.067857344 2.013798663
H 4.955858295 -0.359788245 -1.279203254
H 3.167242495 -2.222386028 0.844899895
H -0.232050261 0.414101619 2.259342760
H 2.900677275 3.610066100 0.941812043
H -0.055969001 -1.996799141 -1.635979729
H -2.518497438 -2.536104243 2.646080068
H -3.316325881 0.656246476 3.492724482
H -4.865168883 -1.718699561 -1.265615707
H -4.616376555 1.627728051 -0.781408858

