19

C 2.545905062 -1.823306938 -0.182351220
C 2.180836677 -0.174718333 1.895388160
O 4.043592781 1.714990841 2.036288105
C -0.582833300 1.498290712 1.814195567
C -0.933392670 2.914371496 -0.649735406
C -2.627249155 0.970496007 0.265649894
C -2.188668420 -2.654148707 -2.340077888
H -0.303923084 -1.816764819 -1.387866796
H 2.369024731 -3.839399615 0.106682221
H 3.810350084 -1.218056403 -1.672885815
H 1.941603359 -1.167567929 3.693659439
H 3.300890012 3.219755414 2.732040799
H -0.817489210 2.268655368 3.699051470
H 0.479901411 2.360491824 -2.064360062
H -1.523163363 4.876863755 -0.759464508
H -4.633439251 0.751733941 0.508890376
H -1.227645365 -4.133840337 -3.419383096
H -3.196259807 -1.445499984 -3.655596500
H -3.493836983 -3.562738816 -1.041099028

