11

N 3.020412476 -0.995971934 0.360530624
C 5.031432996 -1.215594335 1.225189004
C 0.578225373 -0.707016954 -0.665780409
C -1.676869698 -1.006237909 1.138762191
O -2.700078859 1.363907412 0.326253694
C -0.423688748 1.998719310 -0.992255390
H 0.429594709 -1.850556241 -2.368920948
H -1.129965799 -0.983558001 3.131613996
H -2.956443168 -2.579067469 0.767410485
H 0.700658782 3.406799108 0.019383922
H -0.784054626 2.624144410 -2.923142490

