16

C -3.898745992 -1.376723723 -0.579301043
C -1.227892730 -1.256646424 -0.944656912
O -1.208526854 1.739516670 -2.356081166
C 0.458566837 -1.024610828 1.339121972
N 3.051358008 -0.285879053 0.843911209
C 3.793941138 2.142419168 0.707111611
O 2.384729017 3.951073718 0.854854481
H -4.585601931 -1.272237175 1.351799086
H -4.980296705 -2.582767609 -1.830090998
H -3.243951222 1.165096960 -1.711406012
H -0.386348194 -2.280231206 -2.513381817
H -0.394664936 2.996564586 -1.276285687
H -0.365103931 0.325257771 2.663960014
H 0.482591606 -2.864994521 2.271910062
H 4.373311496 -1.630759512 0.633525071
H 5.848110796 2.360713735 0.445941294

