17

C -3.615393994 -0.281393051 2.486202756
C -3.174805368 1.305433767 0.174428090
C -1.959649166 -1.236046331 0.398735349
C 0.824847860 -1.544811215 0.734126758
C 2.692756473 -0.677518953 -1.378809111
C 3.247627816 1.296484327 0.364787629
O 1.920148296 0.526901016 2.318919399
H -2.709193254 0.321253063 4.217416026
H -5.443385468 -1.160611771 2.735722174
H -4.694149953 1.515151302 -1.175493931
H -1.998975916 2.965551535 0.384074816
H -2.731208752 -2.726838609 -0.777367149
H 1.319074396 -3.347199772 1.598405378
H 4.146827291 -2.070467657 -1.761646233
H 2.542438095 0.287220891 -3.309318833
H 5.497369501 1.786314056 -3.602297304
H 4.140235832 3.130832613 0.259055903

