13

C -1.308753903 -1.260902749 -1.363172440
C -0.644534199 1.213546534 -0.273493165
O -2.018140593 1.788619220 1.955810452
C 2.201504781 1.402047697 0.518499426
C 2.980933509 -1.147575684 1.393569158
N 1.819845130 -3.004655392 0.822964332
H -0.837791728 -1.535332481 -3.344843133
H 0.436815485 -4.209681188 0.299534554
H -3.164671088 -1.992838180 -0.863868664
H -0.881716371 2.732660799 -1.675588162
H -3.770015032 1.448236572 1.647197030
H 2.448406173 2.868818023 1.940880255
H 3.405603157 1.864371253 -1.095316291

