9

C 2.869180983 0.039527836 -1.004480407
H 2.075876620 -1.693908584 -1.743932847
H 3.011600494 1.551365276 -2.373908143
C 4.889903697 -0.155839761 0.970423384
H 5.468078387 -2.022178994 1.573442191
H 6.400083507 1.222334648 0.937633537
C 2.295187274 0.728697555 1.681669206
H 2.042955815 2.707243076 2.131983817
H 1.113384907 -0.537793832 2.768138234

