11

O 0.040359599 -3.197142063 1.905586275
C 2.856606915 -0.927779277 -2.048349471
C 2.200594009 1.423517197 -0.914491384
C -0.022358843 1.989657204 0.129534603
N -2.035245921 0.364899104 0.573323896
C -1.877633446 -2.086479949 1.454942322
N 3.432046302 -2.730871587 -3.112074908
H 3.602858817 2.903869816 -1.060213589
H -0.361923144 3.925806265 0.706795743
H -3.761800544 1.155675107 0.657851496
H -3.773827196 -2.908215279 1.732337979

