17

C 3.645471952 0.776372473 -0.183257060
C 1.367451687 -0.955414972 -0.388622971
C -0.204458427 -1.260018943 2.064138303
C -2.818187819 -0.534221872 -0.092994651
O -4.847003928 -1.866840861 0.369680111
C -2.234957639 2.094606735 -0.850466934
C -0.808374513 -0.112386661 -2.048499175
H 5.002593055 0.063991796 1.198828553
H 3.092472703 2.678416683 0.398248896
H 4.606597827 0.928588117 -2.002074500
H 1.976982603 -2.827392675 -1.005627055
H 0.000288523 0.211493631 3.484174038
H 0.015397148 -3.125889033 2.932610509
H -2.762130265 -1.978850220 1.866370792
H -3.739829020 2.855860587 -2.013753971
H -1.291922036 3.471388397 0.338096929
H -0.927977585 -0.486493664 -4.055354720

