15

C -3.735277104 0.041289836 0.923602528
C -1.954658097 -0.348469107 -1.297769133
N 0.677641105 0.023088353 -0.630514964
C 2.157618292 -1.570947563 0.776722205
C 4.445100755 -0.402388681 0.984748038
N 4.409581104 1.871169449 -0.247443687
C 2.131444962 2.060078377 -1.181259146
H -5.690585777 -0.227821281 0.326314506
H -3.338150403 -1.302480654 2.435704738
H -3.542759725 1.944823509 1.690022532
H -2.390874576 0.977041640 -2.815532773
H -2.167813364 -2.247939623 -2.077975255
H 1.463480086 -3.355842019 1.470348069
H 6.115815181 -1.079746479 1.935717334
H 1.419437581 3.618144226 -2.292684993

