15

C -4.080933845 0.157663309 0.859583067
C -2.250965056 -1.195232177 -0.898783754
N 0.254187817 -0.121668127 -0.695198173
C 2.082133636 -1.498184169 0.048384793
C 4.530537579 -0.365557598 0.455505689
N 4.509085502 2.062341343 0.152609217
C 2.981993532 3.757467516 -0.128097712
H -5.992428840 -0.583841847 0.630162473
H -3.517365925 -0.090256778 2.828080838
H -4.104392149 2.178735736 0.456204699
H -2.885092703 -0.959212849 -2.852688114
H -2.248364963 -3.232402784 -0.491642676
H 1.862305159 -3.513608885 0.447712024
H 6.205274117 -1.361345359 1.049537940
H 2.683662695 4.802524934 -1.869488594

