10

O -3.619817786 0.077855318 1.115269134
C -1.381733841 -0.496467751 0.007528952
C 0.841836498 0.987521513 0.888701385
C 3.306197591 0.466950551 -0.155335355
N 3.067751061 -0.480960243 1.976985249
N -1.155706118 -2.157796380 -1.677204048
H -3.368466070 1.238727720 2.487897311
H 0.451168238 2.798812098 1.780415900
H 4.645895476 0.599517484 -1.687535445
H -2.828387219 -3.040031688 -2.016384848

