13

C 4.053390312 -1.059602130 -1.538755833
C 3.139068474 -1.545427341 1.164897991
C 0.839875869 -0.089066874 1.857043916
O -1.247295663 -1.297405776 2.161367433
C -3.509699344 -0.487005987 2.691766861
H -3.821684623 1.514107228 2.959413496
H -4.917153302 -1.937085987 2.896160017
H 0.791854735 1.955819882 2.031252287
H 4.671781133 -1.092615986 2.482936099
H 2.722986743 -3.551643138 1.420885942
H 5.776218981 -2.122593900 -1.940121757
H 4.464037474 0.941723263 -1.832109131
H 2.616300403 -1.613394025 -2.910490226

