10

O -3.742837161 -1.405841493 -0.586558366
C -2.445148928 0.866519741 -0.929265414
C 0.265574853 0.684107200 -1.673662474
O 1.140126460 -1.731923316 -1.607395731
C 2.784119345 -0.268300292 -0.158603240
C 4.424182942 -0.048701209 1.434707550
H -2.542238351 -2.700573382 -0.150036488
H -2.450303307 2.058845652 0.779369787
H -3.400499082 1.973467032 -2.394071823
H 5.879978665 0.456399227 2.725997436

