11

O 4.180382326 1.401217918 -0.476190990
C 1.907474357 0.222839339 -0.191078580
C 1.193244563 -2.197124132 0.013627174
C -1.632131131 -1.951065614 0.266404651
C -2.268839673 0.784540795 0.178782208
N -0.145853276 1.963822154 -0.090375491
H 5.408483209 0.063303614 -0.523374503
H -2.358446593 -2.780291535 2.023045528
H -2.652918816 -2.945882245 -1.241072870
H -4.053791236 1.773738533 0.291111100
H 0.042364806 3.863084328 -0.216046775

