13

C -2.332700718 -1.500113258 -0.759794227
N -1.511588771 -1.386886519 2.435413796
C -0.132991574 -0.186561530 0.670261271
C 0.410828481 2.657474984 0.321134445
O 2.882504289 2.075240311 -0.616521145
C 2.643076650 -0.577897902 -0.134332485
H -1.610196683 -2.969296140 -1.993628048
H -3.590008774 -0.104141994 -1.580218881
H -3.490079999 -2.518976465 0.743250771
H 0.474569397 3.702217423 2.104424316
H -0.727017872 3.694698127 -1.056968136
H 3.862669193 -1.204756643 1.413285766
H 3.006358526 -1.718290360 -1.818860733

