14

C 1.589812264 1.548659415 0.771507808
C 2.232861574 -1.211604084 0.923971535
C -0.647794960 1.910725385 -1.013634221
C -2.619855072 -0.113404525 -0.516450018
O -1.646326508 -2.586054372 -0.920283697
C 0.684983636 -2.988914389 0.056854905
H 3.222943250 2.618589711 0.097164974
H 1.144370577 2.299210179 2.648727914
H 4.035370639 -1.799684586 1.690750360
H -0.017524186 1.751336114 -2.974998937
H -1.504047932 3.775052475 -0.789873357
H -4.239609480 0.061990595 -1.775697235
H -3.293367900 0.011037834 1.441091480
H 1.164158050 -4.979234150 0.040917087

