14

C 2.160707106 0.428794637 -0.626348080
C 0.596401892 -0.698371325 2.456325713
C -0.980202453 1.827633447 0.237941766
C -2.568080280 -0.326437319 -0.882463380
O -0.987736564 -2.513644262 -1.264919778
C 1.249800533 -2.107601720 0.140411489
H 1.808477973 0.901446472 -2.581508466
H 3.949715949 1.125913773 0.072155356
H 2.268398459 -0.089689161 3.515671370
H -0.677907084 3.400987595 -1.066621178
H -1.772537423 2.648439731 1.940151142
H -3.363211157 0.159279459 -2.724046086
H -4.086609751 -0.809157993 0.423709724
H 2.470707171 -3.749973334 0.150782362

