18

C 3.692138285 -0.611276475 -0.674794554
O 2.211957593 -0.064526380 1.402978350
C -0.218078042 -0.317674470 1.186332928
C -0.278637169 2.133008710 -2.592882557
C -1.319894764 -2.655310473 0.044844240
C -1.737260753 1.106172144 3.076761879
H 1.812285261 0.794025029 -2.150778787
H 3.602036937 -2.574907993 -1.288808335
H 5.605599162 0.036154316 -0.318539492
H 0.292582441 2.478634043 -4.551852688
H -2.229261967 1.471304969 -2.670723041
H -0.214206768 3.935776592 -1.593961045
H -0.458248003 -3.142774416 -1.756166518
H -1.050909182 -4.246363304 1.347087829
H -3.343948877 -2.408710681 -0.242167458
H -2.413257494 -0.127265458 4.594101956
H -0.625028843 2.631505630 3.892853656
H -3.400319879 1.910117309 2.151894123

