13

N 4.113418483 2.242769483 -0.204183188
C 2.216697971 0.618928505 -0.575021210
C -1.961919502 -2.656836105 0.175689066
O -0.663797538 -4.678834970 -0.497720564
C -3.488501398 -1.463617658 1.652087244
C -2.277503632 0.001054316 -0.484524493
N -0.064868610 1.572026521 -0.126631379
H 5.889885573 1.662884818 -0.501101738
H 3.893221699 4.050881984 0.388357314
H 0.818621269 -4.022258246 -1.356511156
H -4.741283805 -1.353510120 3.244699081
H -3.397708750 0.592667510 -2.111914585
H -0.341122135 3.399125913 0.399729251

