13

N 3.495376373 1.412673495 0.297185341
C 1.449774866 0.343366109 -0.864911055
C -0.675374983 -1.817091345 0.303453846
O -0.292610900 -4.192488894 -0.446106909
C -2.116615941 -0.693161823 2.030947531
C -2.523545123 0.678942465 -0.440660548
N -0.496237772 1.944137198 -1.495828531
H 5.010254647 0.308080104 0.576133484
H 3.297894437 2.824737723 1.563343475
H 0.932752885 -4.071432226 -1.803805531
H -3.397088977 -1.242030508 3.516842206
H -4.337829583 0.674462510 -1.399060286
H -0.348208797 3.811646814 -1.836172382

