10

C 4.730872945 -0.615342995 -0.841684337
C 2.001046036 -0.047202713 -0.095721734
C 1.870455548 1.705133614 2.136566554
O 0.727295246 1.291263165 4.050318675
H 2.951563593 3.496302962 1.920464920
H 1.036949227 0.897741702 -1.666634809
H 0.951477784 -1.762743030 0.354698079
H 5.778879942 1.119441102 -1.234076518
H 4.794922660 -1.780915997 -2.538801034
H 5.716253700 -1.625368482 0.662133238

