12

C -1.129288162 -1.890372524 1.448577384
C -0.507092434 0.302133551 2.758275621
C -2.051976536 1.780396889 1.351329867
H -2.434736632 3.789881251 1.441359216
C -3.240823895 -0.137905712 -0.544882894
H -4.615146079 0.200798689 -2.052071740
C -3.884924081 -2.406985096 1.378389630
H -4.958818758 -1.914182355 3.050812727
H -4.526930394 -4.110152677 0.414661848
C -0.739601521 -1.687136713 -1.321808358
H 0.866243974 -0.581760408 -1.948201337
H -1.154998207 -3.337472237 -2.481847353

