13

C 1.848246428 -2.117399175 -0.050077799
C 2.440412329 3.123084415 -3.756034763
N 1.313978013 1.673513526 -2.545762992
C 0.001935892 -0.152738739 -1.098721030
C -1.486536540 1.073816934 1.035353259
O -3.341428171 -0.409603126 2.007753165
N -0.959414653 3.216926589 1.880409302
H 2.847250522 -3.041896527 -1.593631155
H 0.844717896 -3.548989056 1.041110688
H 3.216278942 -1.188826932 1.176543825
H -1.342291685 -1.078052339 -2.374526386
H -3.611312809 -1.892372270 0.996062149
H -2.122274536 3.694834962 3.334165708

