13

C 2.515522499 -1.579125882 -0.387772368
C 2.461854882 1.198580942 -2.296349795
N 0.492450118 2.371312869 -2.960585826
C -0.615744184 0.452760748 -1.499763848
C -1.658267650 1.075894083 1.032460448
O -3.559025769 -0.464255329 1.814978234
N -0.773036918 2.833957621 2.355942441
H 3.769340608 -2.651845943 -1.607859073
H 1.094821995 -2.860050261 0.389784737
H 3.584344527 -0.761458188 1.160298266
H -1.506999231 -1.085403884 -2.530787310
H -4.129015526 -1.538549286 0.466799750
H -1.693980394 2.967118760 4.036672169

