14

C 3.547630097 -0.007853248 -0.728643887
N 2.192773793 -0.298469920 2.489958284
C 0.570535850 1.183877437 1.027957117
C -1.538406253 -0.302661220 0.502268625
C -3.876199197 0.295655136 -0.947352682
N -1.107930742 -2.547681499 1.556368610
N 1.116071474 -2.550791894 2.684045705
H 2.885173943 -1.740647955 -1.594314518
H 5.433428048 -0.161133092 0.048024668
H 3.422682199 1.604151469 -1.995399704
H 0.809401636 3.205030649 0.924957935
H -3.456371632 0.686441711 -2.930194362
H -5.157606476 -1.311878622 -0.863894572
H -4.841178961 1.945964846 -0.173781199

