18

C -4.096110708 -0.894749547 -1.670571392
C -3.073882523 -0.108576955 0.889031180
N -0.445965425 -0.864265487 1.159996344
C 1.092807888 0.561774437 2.913801479
C 1.402939119 0.879611159 0.157801164
C 3.539096906 -0.420742230 -1.208990083
O 5.004930948 -2.037484264 -0.016712927
H -6.091613459 -0.405195038 -1.844151278
H -3.891587671 -2.928714555 -1.932074982
H -3.077705250 0.051272654 -3.197768772
H -3.303020036 1.945562656 1.154968369
H -4.134329323 -1.038125525 2.397566342
H 0.199417072 2.106269218 3.930015101
H 2.486945872 -0.530106180 3.938804841
H 0.707754496 2.607572892 -0.717491102
H 3.088852498 -0.783160615 -3.213923209
H 5.076466361 1.766921441 -1.716498710
H 5.836819814 0.324744238 -0.855592173

