16

C -4.476005639 -0.707188542 0.618185257
C -1.880748754 0.333080802 0.434380289
C -0.867227217 2.662922044 0.082665616
C 1.746954066 2.636491767 -0.407295090
C 2.622328421 0.125260251 -0.354593331
C 4.839633335 -1.124945723 -0.505958428
N 0.262205188 -1.446821545 0.034718407
H -4.735826521 -1.993846859 2.222047068
H -5.794940384 0.852492909 0.886718703
H -5.087182090 -1.725774129 -1.087385715
H -1.996141837 4.367261254 0.170596254
H 2.948512857 4.259938662 -0.644772097
H 6.579678940 -0.089365810 -0.751434608
H 0.520687653 -2.629655192 1.525695766
H 4.944805967 -3.165170940 -0.415274100
H -0.023291082 -2.535854554 -1.528202544

