16

C -4.758752452 -0.692514459 0.135380773
C -2.114825727 0.277585631 0.117205709
C -1.176593412 2.678732135 0.302397338
C 1.506743173 2.521395503 0.176199481
C 2.136270547 0.027998371 -0.082079120
C 4.637273260 -1.243345889 -0.316470847
N -0.081540341 -1.311704634 -0.115364133
H -5.077238881 -2.032880778 1.675797959
H -6.074420636 0.869939900 0.387068350
H -5.244154553 -1.642597663 -1.634664158
H -2.297781320 4.370044273 0.503918960
H 2.828883367 4.070926063 0.267077072
H 4.833146680 -2.222573999 -2.125633657
H 6.142648536 0.154298236 -0.191807712
H 4.941073512 -2.628346197 1.186766412
H -0.200731736 -3.196956454 -0.285792447

