16

C -4.495695659 -0.657692759 0.701856566
C -1.905388420 0.339962883 0.289999280
C -0.997114972 2.676095891 -0.043160910
C 1.697179435 2.600543639 -0.630876771
C 2.477168315 0.174754502 -0.663550513
C 4.598398948 -1.408563964 -0.033869278
N 0.187240395 -1.389121763 -0.111958714
H -4.588641272 -1.871257623 2.370111192
H -5.811971409 0.902336420 0.967742827
H -5.156860488 -1.767105387 -0.914833878
H -2.120653416 4.375543036 0.115377002
H 2.918577157 4.224413739 -0.782683138
H 6.332075212 -0.443060652 0.479401295
H 1.813738933 -2.182310153 1.268740766
H 4.921794110 -2.992202418 -1.314493133
H -0.160936503 -2.727148903 -1.450998671

