9

N -3.190681392 -1.840551123 -0.335364801
C -1.443803105 -0.389526657 0.292181762
O 0.978038282 -1.181995043 0.874654389
C 2.945459589 -0.105574123 -0.399883868
O 2.726625562 1.307796019 -2.122499603
C -1.902798097 2.283000146 0.694078245
N -2.258709947 4.382491257 1.084780614
H -2.570399333 -3.654756592 -0.504592383
H 4.716268442 -0.800883865 0.416645644

