9

N -2.892700627 -1.541582315 0.518714382
C -0.650323886 -0.491501419 0.879618000
O 1.270236106 -1.192571821 -0.585432902
C 3.509608524 0.158748408 -0.246534785
O 5.306663141 -0.334052575 -1.455501511
C -2.904193507 1.376621546 0.545928404
N -3.926242168 3.278888554 0.098664604
H -3.148527234 -2.645244582 -1.062810186
H 3.309897883 1.629172009 1.203687379

