16

C 4.715967749 0.684254088 0.259722957
C 2.275189285 -0.553720935 1.070170745
O 0.396916299 -0.003116990 -0.745972336
C -1.935548412 -1.131314912 -0.233888398
C -3.633148519 0.384926421 1.568205193
C -4.085733655 -0.421236224 -1.808670650
H 6.203441422 0.302596156 1.635987798
H 4.475382596 2.725620265 0.104308895
H 5.318749243 -0.037566451 -1.574128974
H 2.516124452 -2.609781282 1.232277839
H 1.684518440 0.146706771 2.935475088
H -1.724281528 -3.120629093 0.266010794
H -4.547613295 -0.716735476 3.033683645
H -2.729235292 2.119764130 2.180456539
H -5.376733732 0.892076076 0.306067092
H -3.543739510 1.386904830 -2.689912530

