11

O 3.733740190 0.062742951 -2.317515087
C 2.588696890 -0.656602066 -0.628642623
N 1.487341109 -1.861877306 1.118266259
C -1.162970319 -1.643878822 0.358430930
C -1.200995955 2.579529866 -0.661900612
O 0.635035699 3.295665014 0.571342669
H 2.308935012 -2.285114089 2.795181500
H -1.768033450 -3.366578366 -0.578908622
H -2.309030330 -1.108831234 1.969524856
H -3.138462269 2.742241049 0.078367018
H -1.096503833 2.301893023 -2.724196281

