11

N -1.688921502 2.994205679 0.223003556
C -0.158942408 0.978327183 0.046733532
C -1.042297001 -1.725947530 -0.001863157
N 1.295867860 -3.139316538 -0.223760694
C 3.006421246 -1.433098411 -0.275199360
N 2.277417499 1.108018803 -0.119918599
H -3.559678272 2.802525013 0.422942741
H -2.059402592 -2.245820994 1.720957160
H -2.294470255 -2.107240537 -1.601534236
H 4.998642639 -1.884731578 -0.436185658
H -0.925403343 4.728701989 0.290654334

