13

C 3.838959895 -0.420785354 1.252666850
C 1.075507143 -0.577122888 1.411937333
C -0.141653417 1.230076403 -0.274764705
N -2.783864497 0.851302249 -0.806641029
C -3.931689342 -1.441207641 -0.924082122
O -6.107925839 -1.746162988 -1.541830984
H 4.239407865 -2.069417423 0.037717951
H 4.674952320 1.244134567 0.331602451
H 4.773031960 -0.846456916 3.038431846
H 0.077237907 2.884606722 1.001613239
H 0.943881198 1.715946986 -1.986406497
H -3.829161268 2.327882805 -1.397250363
H -2.665368105 -3.000212494 -0.373062456

