18

C 3.432043430 -1.143515551 0.852875711
C 0.890319878 0.221313726 0.910672890
C 0.957443253 2.646949984 -0.477662142
C -1.252540692 -1.565975070 -0.125878890
C -3.880897132 -0.935955819 0.902293750
C -1.289368714 -1.185236509 -2.935175302
N -0.467048060 0.739518770 -3.838217440
H 3.365116908 -2.913149637 1.911291320
H 4.922618862 0.026473570 1.665541281
H 3.968573281 -1.593397094 -1.090619641
H 0.333574815 0.562311195 2.878454190
H 0.529702724 2.344796987 -4.123983582
H 2.811848374 3.491564342 -0.755603174
H -0.491537059 4.033794797 -0.031212682
H -0.807118204 -3.528373674 0.336897633
H -5.312033119 -2.160010118 0.068792437
H -3.921687494 -1.190437375 2.947624024
H -4.386304403 1.019292023 0.478369750

