15

N 2.704801890 -1.647296467 -1.689105240
C 0.848211621 -1.093578575 0.221077453
O 0.863794908 -3.011696757 2.051605091
C 1.046410311 1.493503544 1.532459171
N -1.674117501 2.080280249 1.045465807
C -1.860314276 -0.309524761 -0.459987382
C -1.925150704 2.173054463 -1.697866691
H 2.411494304 -3.369445799 -2.467674199
H 2.686632305 -0.347358590 -3.088517261
H 1.413976083 1.297719924 3.544423080
H 2.353792878 2.853734626 0.695179238
H -0.156215571 -4.395210512 1.473580540
H -3.503285103 -1.533686246 -0.345380992
H -0.331437704 2.820545517 -2.821409953
H -3.743493539 2.867833608 -2.329454887

