15

N 3.179105969 -1.486499879 -1.786805064
C 1.545714542 -1.343278897 0.075188801
O 1.004824620 -3.496650010 1.191264300
C 1.036436866 1.236905911 1.287967766
N -1.585200804 1.896059258 1.063695542
C -2.802311928 -0.458239650 0.004506902
C -2.406222308 1.837062009 -1.560951328
H 3.596151574 -3.187235477 -2.533317464
H 3.881719805 0.081964792 -2.591775291
H 1.546077104 1.003719905 3.281498455
H 2.295183570 2.670386689 0.474070415
H -0.882604391 -3.114867942 1.313217492
H -4.758224274 -0.649304775 0.639931809
H -0.974300517 1.835158204 -3.048222272
H -3.949317387 3.132408739 -1.951177788

