12

O 2.075793680 -2.887110591 -0.056446913
C 1.926992506 -0.797351400 -1.298609437
C 1.173200446 1.346822133 0.423159492
C -1.391017555 2.369256506 0.438813001
N -0.770506159 0.106965831 1.962337264
C -1.112760712 -2.161087678 0.401145166
O -1.418516377 -1.782676900 -1.991137483
H 3.078521309 -0.513224614 -2.986623871
H 2.732443915 2.263830160 1.389299170
H -2.567278790 2.102520114 -1.208531956
H -1.743134041 4.027354402 1.583383322
H -2.011596565 -3.739006082 1.374723429

