13

C -3.305803338 0.338075783 0.745968084
C -1.798832736 -2.036935941 0.658074881
O 0.387441080 -2.242339268 -0.615806432
C 1.840633081 -0.432190191 0.399375664
C 3.358903224 1.148549536 -1.333677878
H -3.441895971 1.217820678 2.612056512
H -5.247681935 -0.020252176 0.111775354
H -2.434232660 1.740135329 -0.499309106
H -2.677126265 -3.849638095 1.032434029
H 1.962411303 -0.395329023 2.431592505
H 2.313337810 2.751989258 -2.130442443
H 5.019984336 1.904576084 -0.376266789
H 3.974022079 -0.008978920 -2.936493840

