14

C 5.025075542 0.532618080 -0.962241494
C 2.970330822 -0.233421295 0.767341680
C 0.596239206 -0.601845853 0.371105834
C -1.767570430 -1.705080720 0.367995703
C -4.169524168 -0.195875839 0.534067349
O -3.793287614 2.423005722 0.406148159
H 5.933470386 2.252983264 -0.274750002
H 6.489176913 -0.924277765 -0.888897557
H 4.476184445 0.800644909 -2.943501908
H -0.384905729 0.343186906 -1.385172632
H -1.967290273 -3.747569338 0.221368074
H -5.470257544 -0.676810646 -0.996225327
H -5.113170643 -0.742917083 2.307613451
H -2.545080575 2.888468945 1.643240189

