12

C 5.475494183 0.315454401 0.583431379
C 3.072805492 0.467682744 0.091040769
C 0.540816468 -0.032741565 0.356819485
C -1.562485389 -1.105575558 -1.244677277
C -3.218905850 -0.243904664 0.972137763
O -0.961116842 0.581652618 2.318901749
H 6.676869217 1.817185265 -0.156499634
H 1.992497368 1.995312380 -1.232550942
H -1.901652942 -0.213838744 -3.063054203
H -1.407007510 -3.144923866 -1.484568711
H -4.196007319 -1.709033007 2.033113478
H -4.465458321 1.352895977 0.604309319

