13

C -1.426107086 2.269683681 0.025760954
C -1.416788997 -0.654731596 -0.043592637
C -0.371793467 0.982592937 -2.180959188
N 2.202430747 0.133283536 -1.961248555
C 1.965447488 -1.056092569 2.129689387
C 1.306833204 -1.880742026 -0.366810278
H -0.227155379 3.345211233 1.283616539
H -3.352048772 2.950399711 -0.163460535
H -3.124313247 -1.743233044 0.223646214
H -1.334248103 0.933110119 -3.993604574
H 0.793291758 -1.465984880 3.763761815
H 3.527585243 0.239992818 2.357671824
H 1.278565263 -3.869394671 -0.949461786

