14

C -3.799812064 0.371204118 0.276392855
C -1.010785289 0.175320721 0.377773109
N 0.549660329 -1.782994128 1.499150991
C 1.170650771 0.949534087 1.951905125
C 3.054498449 1.090020919 -0.226901872
C 1.107479683 -0.833187580 -1.123573158
O 0.944933587 -2.309483940 -3.208482593
H -4.390137542 2.117507929 -0.645674876
H -4.589730245 0.331907415 2.180000605
H -4.572356349 -1.222061469 -0.778551025
H 2.218532536 -3.599920179 -3.118003206
H 1.173654283 1.715783146 3.842422912
H 4.926180032 0.325738763 0.199580722
H 3.171456981 2.859617929 -1.278948178

