11

C 1.576297775 -0.218001262 -2.259029689
H 0.442417219 1.253167382 -3.180332968
H 2.937906996 -0.925493710 -3.654530600
C -0.019836644 -2.287478023 -1.172749066
H -1.266307234 -3.455845702 -2.293977490
C 0.353403692 -2.434572339 1.290921294
H -0.530110886 -3.745648337 2.585711670
C 2.236265745 -0.478340931 2.090553499
H 1.453653019 0.856225572 3.470645395
H 3.936736970 -1.321219368 2.926936947
O 2.880977126 0.826029959 -0.162096039

