12

N 3.723726890 1.411355411 -0.387929668
C 1.356711637 0.325879906 -0.140077517
C 0.644272264 -2.143128930 -0.024120578
N -2.036565366 -2.161617009 0.060917589
C -2.778001773 0.244781422 0.007830099
O -4.831258409 1.521020999 0.019127279
N -0.801400044 1.786887739 -0.106772663
H 5.153934436 0.261824786 0.111879931
H 3.856972084 3.107571842 0.465803562
H 1.733666003 -3.858060226 -0.011811147
H -3.164473310 -3.680371546 0.120960935
H -2.819544208 3.182179439 -0.117019136

