10

N -2.223669870 -1.788055703 -1.329570578
C -0.487074811 -0.043004838 -0.213905829
C 2.181411116 -0.453091318 -0.222395575
C 4.407266038 -0.889522300 -0.274503185
C -1.415715425 2.003071973 0.878698422
N -2.244396160 3.981085800 1.679017618
H -1.946105971 -1.909645709 -3.216735443
H -2.006887803 -3.533801024 -0.583760740
H -2.735613874 4.031486156 3.535004289
H 6.383445508 -1.259083888 -0.321162243

