17

C -3.101541707 -0.875380856 -1.065224198
C -1.435197689 0.306985291 0.945839484
C 1.049963318 -1.101884658 1.432319296
O 0.842800636 -3.723163053 1.081199394
C 2.669971875 0.343776369 -0.500629325
C 0.002317919 2.643283405 0.019633423
O -0.481454614 3.838611637 -2.121558292
H -4.618962324 0.421588091 -1.569400577
H -3.913218894 -2.632621249 -0.363238601
H -2.054046485 -1.303284922 -2.786524967
H -2.530818849 0.691489283 2.651629872
H 1.730753141 -0.678336316 3.340553228
H 2.454644027 -4.488252633 1.398745741
H 4.564433332 0.908056772 0.059431206
H 2.685581334 -0.666695169 -2.308541174
H 0.821752281 3.752873856 1.578761619
H 1.492643038 2.315150567 -1.943885089

