15

C -2.156002992 1.266257666 1.351687951
C -3.100656049 -0.084023875 -0.964368607
C -1.040863190 -1.204738199 0.615615966
N 1.515493040 -1.418117512 -0.330235857
C 3.939545046 -0.577258041 1.088449858
C 3.013409964 0.741067740 -1.222651329
H -1.055098648 2.965911320 1.084653304
H -3.324763186 1.283719775 3.027550199
H -4.944751958 -0.965359637 -0.928343454
H -2.555613360 0.700830445 -2.773247959
H -1.506586591 -2.807839471 1.799861862
H 3.187541744 0.436282714 2.735590989
H 1.772990485 -3.027494187 -1.319690938
H 3.952464216 0.410400364 -3.021401578
H 1.969557019 2.513182697 -1.203444663

