13

N 3.891081905 2.385213902 1.330365396
C 3.484912940 0.263539278 2.307400460
C 2.628195189 0.423877003 -0.268920689
C -1.258587438 -0.874004966 -2.523455739
C -3.316014038 -1.074843773 -1.074627154
C -2.071902942 0.612431891 0.866392771
N 0.061419954 0.839713258 -0.954203449
H 3.724530043 -0.354108012 -1.820861953
H -0.624719911 -1.565445248 -4.342313789
H -5.185769839 -1.846300710 -1.300355903
H 3.694720199 -0.631145017 4.136597542
H -2.976568430 2.420890495 1.267817295
H -1.524585608 -0.313736262 2.627615950

