13

N 4.433098368 0.866826954 2.532343424
C 2.716703517 -0.377853006 1.662127907
C 2.031757392 0.545967710 -0.890678133
C -0.511396890 -0.913137206 -2.059622443
C -2.101121906 -1.437477473 -0.070893265
C -2.076253488 1.280228014 0.731233360
N -0.240349296 1.875443518 -1.362295343
H 3.523828410 0.932159605 -2.241675408
H -0.173036779 -1.754953068 -3.889847990
H -3.374736257 -2.985413709 0.302986630
H 1.353141472 -1.834993930 2.474018312
H -3.842542022 2.244889397 0.281759564
H -1.447214892 1.809170558 2.619643971

