14

N 5.630697597 1.541547903 -0.849309666
C 3.537089752 0.905719049 -1.562693145
O 0.443087032 -1.761051895 1.737674414
C -0.479102170 -1.312897146 -0.769460800
C -2.759810192 0.180419277 0.263456886
C -1.785386956 -0.679098330 2.847955409
C 1.394979838 0.018560739 -2.415987128
H 5.763004145 3.327902003 -0.157569257
H -1.036818723 -3.094202880 -1.671634080
H -4.619333617 -0.497295470 -0.294624989
H -2.623888277 2.205951288 -0.065312639
H -2.938706350 -2.119031842 3.780603489
H -1.320423245 0.802366998 4.207498101
H 0.974792809 0.266218154 -4.404489785

