11

N -2.393008209 1.381028425 0.594777881
C -1.680444758 -1.150868494 0.643728326
O -3.272862879 -2.812097118 0.737327689
C 0.973398343 -1.812418034 0.672997840
C 2.458439882 0.985932178 -1.725740605
O 2.858060058 -0.057092576 0.481741324
H -1.215455289 2.642733230 1.398387411
H -4.216312842 1.592114367 1.097687973
H 1.541398596 -3.649375786 1.354984616
H 1.939691787 -0.196219259 -3.302756721
H 2.743606981 3.008348219 -1.875356496

