11

C 4.128784148 -1.091374738 -0.429888221
C 3.319965455 -1.267845168 1.839617334
C 0.843262353 -0.388966693 1.131153643
C -1.519588435 -1.528140126 0.985765126
N -2.903316126 -0.044047645 -0.568218101
N -1.827380602 1.959458568 -1.471916428
C 0.591903815 1.839348143 -0.510730044
H 2.531440947 0.839908108 -1.785940873
H -2.247753750 -3.264095948 1.755032645
H -4.714878737 -0.382164964 -1.067567950
H 1.519070121 3.630499633 -0.147386770

