13

N -3.320266942 1.913742748 -0.272874336
C -3.476785719 -0.218607487 0.767633397
O -1.645775842 -1.958015422 0.662926507
C 0.496385208 -1.391285915 -0.875637462
C 2.212571566 0.488495129 0.435488104
C 4.755137992 0.781261667 -1.694069475
N 5.623008850 -0.103213723 0.172189293
H -4.914269599 2.934561406 0.009173335
H -5.060200543 -0.947371258 1.868579806
H -0.117127512 -0.661855788 -2.701613544
H 1.467302907 -3.186407890 -1.123507660
H 1.585359352 2.434441607 0.310797265
H 2.469757981 -0.019134120 2.411845132

