17

C -2.488291848 -0.752255883 1.930559081
C -0.916765462 0.736820354 0.040466085
C -1.779965786 0.382807547 -2.677896555
N 1.825753056 0.142266066 0.313677227
C 3.289878219 2.066336300 0.986187177
C 2.529246087 -2.218301366 -0.137487024
H -2.557321105 -2.757696647 1.463795935
H -1.721089290 -0.550779482 3.832687648
H -4.420120126 -0.029534057 1.925461979
H -1.060947048 2.735102287 0.511191420
H -1.810000507 -1.604081057 -3.221350475
H -0.537098658 1.397081062 -3.971413615
H -3.690457884 1.131711604 -2.887202734
H 2.449884714 3.891231439 1.284566296
H 5.289206739 1.743809221 1.212580128
H 1.127802705 -3.591807169 -0.660938024
H 4.497299829 -2.708945473 0.043287654

