13

C 2.395154617 -2.804741001 -0.897572345
C 2.988578566 -0.410057530 -0.437679902
C 1.289957345 1.757698973 -0.744162545
C -1.121931893 1.928845307 -0.017181503
N -4.897721362 0.020416450 1.807404231
C -2.533740668 0.016124088 1.409107034
H 3.771204388 -4.298605369 -0.647828313
H 0.540843642 -3.345732948 -1.579311038
H 4.912306816 0.043747991 0.122549287
H 2.126091764 3.403047794 -1.645492289
H -2.151363280 3.654682194 -0.444048563
H -5.731149202 1.533147126 0.946315506
H -1.439518736 -1.520537342 2.238375719

