18

C -1.622957777 -3.796347213 0.899701783
C -2.835867983 -1.270235917 0.164367320
C -1.133765679 0.626053226 -1.086418081
C 0.266643701 4.134565482 -0.121723477
O 1.144018804 1.109077126 0.705740029
C 3.525428309 0.225300575 -0.134682444
H -0.831889641 -4.749272641 -0.754264681
H -0.102814140 -3.515118814 2.268446534
H -2.996126189 -5.071037990 1.768345954
H -3.714705659 -0.435185256 1.843770574
H -4.382065237 -1.605294923 -1.170999652
H -0.275424691 -0.158168962 -2.804029008
H 0.159444073 4.684215361 -2.088700302
H 1.975897466 4.917169346 0.772732048
H -1.416259080 4.669363474 0.901312169
H 4.957424481 0.744710830 1.253402899
H 3.429325210 -1.828591840 -0.310844924
H 4.009959265 1.041703816 -1.973673712

