10

O 0.734174190 -2.252455331 -1.228946233
C 2.079905233 -0.601376899 0.088020306
N 0.694797267 0.593358942 2.129466815
C 0.386957499 2.167555625 -0.031693731
N -1.778366038 1.399260143 -1.141183289
C -1.793664732 -1.245896680 -0.532985953
N -1.732791381 -0.863449182 2.060519572
H 4.117079260 -0.635737770 -0.029695307
H 1.104752355 4.073294041 -0.067417661
H -3.305146053 -2.375097253 -1.316552387

