18

C 5.603135526 -0.350358682 -0.135043911
C 2.912888836 -1.110320490 -0.821950362
C 0.967184394 0.364153153 0.593440068
N -1.287756910 0.577788090 -0.284504504
C -3.062897204 0.085713820 -2.028867434
H -3.435496621 -1.812162637 -2.697162691
C -3.848427007 1.256008699 0.410979319
C -4.990542328 -0.156946101 2.607319952
H -7.046792271 -0.118814999 2.441816131
H -4.380366770 -2.127677736 2.604748280
H -4.490379935 0.690144119 4.422479354
H -4.246800341 3.276009556 0.383911997
H 1.394346364 1.333457310 2.345755986
H 2.577414809 -0.839604448 -2.848960592
H 2.651105152 -3.138579602 -0.476353488
H 5.970586705 -0.650705780 1.874174321
H 5.939782544 1.642801035 -0.547923614
H 6.977560983 -1.460647670 -1.195922759

