16

C 4.981628131 -2.067301307 1.918445218
C 2.533800289 -1.481378116 0.673856834
N 1.547589150 0.758727061 0.680422102
C -0.339225077 1.809243199 -0.854693174
O -2.011676199 3.401247092 0.543586107
C -2.960793374 1.064354962 -0.425038088
C -4.914064734 1.228021722 -2.468908851
H 6.467306829 -2.410256023 0.519404699
H 4.829120618 -3.772334274 3.069717642
H 5.597978312 -0.522918928 3.138840894
H 1.575154812 -2.890120981 -0.460988408
H 2.446228831 2.089603855 1.731895764
H -3.352588799 -0.314974694 1.061003683
H -4.341856287 2.616679444 -3.876627012
H -6.745140619 1.778549549 -1.691020383
H -5.131379213 -0.603806255 -3.397019643

