13

O 0.244564141 2.669849685 1.717687594
C 1.411907476 1.877230065 -0.508768905
N 3.145943165 -0.050016912 -0.102381639
C 1.093303563 -2.032701329 -0.645387316
C -1.251566935 -0.224662490 -1.169670702
C -2.041325850 1.171478093 1.298643263
N 0.121999698 1.829313224 -2.571488514
H 3.658684312 -0.117617593 1.739907145
H 0.909361571 -3.329974919 0.950493010
H 1.581708628 -3.059404159 -2.356707270
H -2.779443860 -1.045007152 -2.270985835
H -3.652196202 2.411047630 0.977580571
H -2.335943432 -0.022735673 2.952042790

