15

C 1.788809005 -0.808500935 -1.503971323
H 3.726303815 -0.450689174 -2.055321426
H 0.974404036 -2.493830541 -2.329974524
C 1.144106393 0.025219057 1.113013142
H 2.597471587 0.544180124 2.452232831
C 0.213146386 1.507020906 -1.189736646
H 0.813661607 3.332095059 -1.886956750
C -2.511781522 0.799311915 -0.490033858
H -3.875468232 2.341856479 -0.433876016
O -3.518113633 -1.477474434 -1.589170003
C -2.858076064 -2.925168768 0.628585686
H -1.656983600 -4.546711575 0.181568401
H -4.554263317 -3.577850181 1.611900593
C -1.592111778 -0.624858371 1.847947020
H -2.158601271 -0.082345874 3.744700753

