17

C 3.445705243 -1.007602329 -0.068164349
C 1.452809804 0.282065680 1.121401636
C 0.002846494 2.030026290 -0.672875197
C -2.662263266 1.578798374 0.277590147
O -4.091687955 -0.001949782 -1.409419368
C -2.830929222 -2.212976024 -0.445170210
C -1.411501298 -0.675961346 1.539043808
H 5.243818654 -1.300559049 0.855442261
H 4.161145689 2.238231023 -1.522284602
H 3.135007131 -1.992612188 -1.836514177
H 1.992848819 1.182553117 2.891958059
H 3.082595086 3.354316330 -1.563179787
H 0.162320085 1.422374839 -2.639611176
H -3.759861062 3.059027971 1.180802701
H -1.682734180 -3.175845814 -1.866498329
H -4.192792781 -3.539241073 0.357777765
H -1.666485030 -1.150171601 3.518581340

