14

C 3.180248309 -0.325107840 -1.262513571
C 0.474157097 0.770425203 1.856919194
C -1.641496350 1.674731757 0.474587879
C -2.615859246 -0.448152254 -1.134105490
O -1.070680196 -2.510386507 -0.598951473
C 1.402872071 -1.491867986 0.383909673
H 2.785529213 1.497801556 -2.101117465
H 4.958424165 -1.227670063 -1.704588862
H 1.624207472 1.898907397 3.109356424
H -2.405517535 3.571957240 0.507575165
H -1.517743836 0.338323999 2.890642886
H -2.591568839 0.149014769 -3.122088945
H -4.566229214 -0.973498366 -0.680477036
H 2.179315371 -3.039153193 1.489474969

