10

N 3.838718104 -0.238787815 0.441249595
C 1.502128027 -0.037495265 0.123279666
O 0.402222215 1.746859863 -1.263603451
C -2.294318321 1.363949930 -1.167869699
C -2.813490640 -0.890255420 0.441067104
N -0.522539774 -1.561080831 1.094813624
H 4.286175544 -1.723132613 1.564095964
H -0.145445473 -3.055299372 2.217110688
H -3.007656163 1.078064414 -3.084049778
H -3.188953540 3.048099005 -0.376693206

