10

N 4.066674463 -0.131868812 0.364301837
C 1.717687178 -0.108947020 0.191336868
O 0.395612879 1.538533545 -1.100057557
C -2.286427259 1.371403936 -1.166573404
C -3.185297543 -0.832800413 0.382424972
N -1.592609702 -2.108003174 1.425416428
H 4.750602762 -1.552067328 1.446244820
H 0.144783276 -2.696338770 1.980254078
H -2.881587091 1.132522636 -3.124420697
H -3.072600854 3.118489187 -0.409521169

