12

N 5.484570235 3.042023384 0.841718862
C 3.800700934 1.486059270 1.140855610
C 2.020772584 -0.107925264 1.793073928
O -0.486633352 0.535489878 1.668657175
C -1.962487553 -1.223596418 0.291392556
C -4.208546105 -0.255712788 -1.010268902
C -2.334296384 -0.879084719 -2.451284793
H 2.531282531 -1.968518029 2.490712511
H -1.907453608 -3.087723973 1.169968731
H -6.084205486 0.500360266 -0.798306770
H 6.216849728 3.084481732 -0.937291799
H -1.525040976 -1.019697955 -4.310945829

