21

C 5.077079520 -0.376057218 0.166456828
C 1.415369322 -0.995039505 -1.908789531
C -0.077976336 -2.633141302 -0.133833031
C -2.321465011 -0.960128818 -1.035464810
C -4.518119187 -0.540146805 0.758260771
C -0.374289285 1.220331898 -1.515718994
C -0.094572383 3.024986766 0.705275345
H 4.171805710 0.802980592 1.571013458
H 5.558094830 -2.224904655 0.921322631
H 6.716595172 0.567917162 -0.646358881
H 3.900774915 -0.823252383 -1.773331146
H -0.104345555 -4.662658612 -0.494096542
H 0.203108539 -2.299948306 1.890658137
H -3.030794367 -1.652442758 -2.841199694
H -3.893208282 0.111979954 2.612143478
H -5.838177091 0.857602653 0.004913912
H -5.560067288 -2.300552055 1.032334573
H -0.667569337 2.329946764 -3.233562623
H 1.501062033 4.296282990 0.400519345
H 0.197376924 2.047804361 2.499068691
H -1.787119363 4.190947974 0.902272642

