16

C -1.825185477 2.595588494 1.788115437
C -2.323822445 0.421577886 0.130155416
C 0.578084267 -2.939223417 0.856323989
C 2.281256099 -1.221098371 0.057377584
C 2.459712065 -0.418821437 -2.635475378
O 1.114522164 1.759438182 -2.683468563
H -0.418218841 3.827225092 0.936927781
H -1.295873945 2.051870314 3.702333395
H -3.622423000 3.635400505 1.904899756
H -2.583928393 0.771726298 -1.860142519
H -3.298352147 -1.188012063 0.926853727
H -0.290139705 -4.224331932 -0.488221969
H 0.210950638 -3.275229156 2.844186293
H 3.267970057 -0.033510532 1.410027500
H 4.474473184 -0.168000640 -3.157180686
H 1.729489179 -1.937716759 -3.883498680

