13

C 1.243026809 -2.212575194 0.092194654
C -1.300708224 -2.385555356 0.547463126
O -2.927221596 1.442159364 0.568561257
C -1.844174503 2.700443614 -1.089866945
N 0.657782087 2.725766511 -1.462781851
C 1.964221491 1.506598836 0.297244811
H 2.538682831 -2.674455893 1.610047149
H 1.936523321 -2.532541656 -1.806246660
H -2.646492311 -2.685118786 -0.957506067
H -2.027573784 -2.595460427 2.444748079
H -2.964491417 3.755939615 -2.478425361
H 1.381948797 1.634817396 2.269624136
H 3.982145936 1.328162581 -0.032420179

