8

C 4.071736983 1.829343536 -0.949249835
C 2.781865148 0.573475773 0.426740769
C 1.257939885 -0.886386470 2.110584672
C 0.021613327 -2.963341954 1.433871536
H -1.107301426 -3.999197011 2.788931325
H 0.105048401 -3.681472822 -0.480656696
H 1.146384666 -0.202885967 4.041286333
H 5.215011423 2.938667025 -2.176858614

