15

C -2.454721827 2.130103936 -1.412001149
C -0.925618564 0.433274989 0.279553705
O -1.124948614 0.799673836 2.682654696
C -0.412086189 -2.329457457 -0.570393233
O 2.241193527 -2.638705203 -0.516023034
C 3.286542361 -0.543101657 0.692169584
O 3.120083208 -0.327760694 3.092701228
H -4.411783391 1.467260577 -1.390757566
H -1.778161721 2.084345768 -3.356173647
H -2.421035531 4.056328628 -0.691143803
H 1.588050756 1.091277644 -0.218005930
H 0.883168739 0.115840230 3.413747461
H -1.082777637 -2.708103676 -2.485855178
H -1.353626489 -3.606237609 0.753536324
H 5.064270087 0.026634783 -0.190644207

