19

C -3.573016130 -3.168679972 -2.038032303
C -2.373899393 -0.556324430 -1.919941749
C -1.275674757 0.034251286 0.677973130
C -0.020521783 2.601710092 0.839728055
O 2.097224894 2.799437125 -0.908787605
C 4.382386490 1.994992997 -0.528416482
C 4.903483590 0.718688262 1.952216854
H -5.100660921 -3.358465035 -0.660780345
H -4.360308121 -3.548411782 -3.905270460
H -2.183252276 -4.641515072 -1.633694540
H -3.780990146 0.882184021 -2.401331036
H 0.081950789 -1.431242794 1.212724654
H -2.778175911 -0.019046550 2.101595131
H 0.600846547 3.047978157 2.750765377
H -1.302895941 4.088793934 0.215588744
H -0.883588031 -0.404262061 -3.341669054
H 3.493026801 0.742253506 3.462240932
H 5.317603786 -1.248548079 1.454000388
H 6.691013647 1.472389596 2.653869254

