19

C -1.807453440 4.557665278 -1.763847045
C -1.571100045 2.535503915 -0.308061074
C -3.080494221 0.158436566 -0.604060310
C -1.552214406 -2.219559527 -1.250902281
C 0.320608005 -3.087926060 0.773916491
C 2.953899124 -2.025009709 0.705949864
C 3.947307909 -0.493440788 -1.004932013
H 5.898358349 0.109057361 -0.862734563
H 2.876255853 0.235880528 -2.590581211
H 4.156657722 -2.657131715 2.249362700
H -0.480859067 -2.726496342 2.651735016
H 0.511440486 -5.147636300 0.676929869
H -2.910711002 -3.744279930 -1.560773996
H -0.581341833 -1.957482841 -3.055914402
H -4.112048450 -0.198455542 1.157393945
H -4.506858404 0.451897162 -2.070433056
H -0.193203350 2.565842599 1.214646279
H -0.667527026 6.231957711 -1.467374339
H -3.154085258 4.611949739 -3.310664734

