11

O -2.639431501 0.554995102 -1.937118736
C -1.551101716 -0.098791008 0.925817306
C 0.961541161 -0.882026456 0.195731615
C 3.050228443 0.841514432 0.550211789
O 5.271584854 0.339986296 0.334672027
H -3.835072142 -0.700304893 -2.517676768
H -2.863541057 -1.501627628 1.648913581
H -1.753772632 1.728935905 1.838530250
H -0.575057757 -0.115271083 -2.183923431
H 1.397774063 -2.884502107 0.150432291
H 2.466259436 2.817290388 1.016005846

