15

C 2.551980702 -0.626262627 -1.144156244
C 0.849541478 0.347644166 0.915688544
C -0.662031344 2.997175043 -0.789630206
N -2.345318911 1.892080005 0.786114843
C -0.818311014 -1.604715079 2.078838615
C -1.994042238 -3.381806932 0.531798789
N -2.994082147 -4.747016931 -0.864734763
H 1.479342881 -1.544969045 -2.643468012
H 3.781434931 0.821481086 -1.936799731
H 3.675037719 -2.102023060 -0.217157821
H 1.787554680 1.462389468 2.353520700
H -0.711866388 2.667614120 -2.811451985
H 0.261247890 4.689077513 -0.103025487
H -3.554549178 0.712910122 -0.132957332
H -1.314694181 -1.465687286 4.046534952

