16

C 4.521959262 0.880563449 -1.017548392
N 2.201794873 0.907838244 -1.638015606
C 0.257658658 0.402433808 0.365357873
O 1.221906493 -0.003339014 2.521309483
C -2.037832049 -0.930579038 -0.808047137
C -3.378326000 -2.826289396 0.826943944
H -3.044273084 -2.387766071 2.812611218
H -2.661749280 -4.730250280 0.484190239
H -5.412038351 -2.826170665 0.468433986
H -1.967744639 -1.397823592 -2.807825808
C -2.172320645 1.856316447 -0.218090476
H -2.295493201 3.188457581 -1.771052363
H -3.177931750 2.416694245 1.472604250
H 1.665223864 1.254884255 -3.440795489
H 5.976852243 1.226950210 -2.411298113
H 4.858277486 0.489253665 0.972550139

