18

C 4.469342389 1.642210817 -0.444069501
N 2.403692230 0.604150979 -1.294981050
C 0.798275967 -0.820440433 0.341890176
O 1.636071721 -1.593962670 2.328976578
C -1.880351968 -0.808225810 -0.568319712
C -3.609429130 -2.661772750 0.759701385
C -2.001339812 1.935278823 0.172126271
H 2.347329731 4.196525217 1.411023348
H 5.595576073 2.802262530 -1.687268200
H 5.163377567 0.982770118 1.356968205
H 1.652988379 1.196778351 -2.944152730
H -1.976609080 -1.040623384 -2.618611292
H -3.401112771 -2.489855143 2.802136013
H -3.164526789 -4.609216912 0.241659367
H -5.575082107 -2.281913762 0.265475302
H 0.875299825 3.792909046 1.231124728
H -2.596880046 3.302384993 -1.234313641
H -2.676108553 2.286179611 2.073437021

