17

C -3.041760032 -0.951278380 -1.092477507
C -1.175160281 0.052759188 0.843459943
C 1.142777273 -1.710688086 1.022377152
O 1.169605450 -4.184869084 0.982464795
C 2.694686053 0.116192249 -0.595839434
C 0.662466793 2.134203074 -0.145430771
O 0.012248562 3.462824990 -2.343967662
H -4.568568960 0.402006314 -1.388127710
H -3.843969049 -2.729377929 -0.431512951
H -2.147601270 -1.290865906 -2.916913556
H -2.126192128 0.458605463 2.626248204
H 2.053618821 -1.041742140 3.504052956
H 1.934159992 -2.826600785 3.073520716
H 4.652543211 0.502119147 -0.105080602
H 2.598941549 -0.580607561 -2.538111756
H 1.196391335 3.438092160 1.369624589
H -1.218297475 4.727884740 -1.934657916

