13

C -3.194886146 2.917139907 -2.218632541
H -3.022113400 4.285731232 -3.751284577
H -4.073658928 3.688115493 -0.520538497
C -3.477798688 0.133411338 -2.829518447
H -4.716575163 -1.279444458 -3.596602066
C -1.306190678 0.852378959 -1.991493224
N 1.186873106 0.400202533 -1.458604857
C 1.886281400 -1.861385411 -0.088960218
H 0.364556118 -3.088829595 0.526872198
H 3.573315387 -2.806170011 -0.759998790
C 2.083098643 0.666612097 1.117133160
H 3.909398605 1.567416988 1.321817353
H 0.698093894 1.132856419 2.553993090

