14

O 1.252068109 0.530178840 -1.766167346
C 0.672355579 2.231330140 0.106834117
C -1.495968786 0.703201049 1.131966074
C -0.829051159 -1.112676657 -1.038280747
C 0.048940165 -3.737464122 -0.382586128
C 1.796611684 4.404681668 0.594242748
H -1.199661034 -0.065375000 3.019747387
H -3.342096473 1.604002161 1.028247511
H -1.550181363 -4.885280387 0.238779047
H -2.229664970 -1.149989772 -2.556192826
H 0.897398244 -4.645800479 -2.027504469
H 1.450895625 -3.680452124 1.129367909
H 1.140826754 5.565372921 2.140301484
H 3.374471506 5.046819430 -0.534771952

