14

C 2.810405077 0.891505436 -0.748692275
C 0.499582587 0.139632884 0.810999947
C -0.209969473 -2.615710090 0.358285270
C -3.902805558 1.174511217 -0.520575120
O -5.871139527 0.519354980 -1.226194792
C -1.685085698 1.914409538 0.283218035
H 2.426603458 0.667614105 -2.765055750
H 3.330045179 2.860413050 -0.416974929
H 4.434773837 -0.287051836 -0.263883340
H 0.987722656 0.349038368 2.812996666
H -1.815206608 -3.188695932 1.521863666
H 1.373465136 -3.854996564 0.814331175
H -1.467180358 3.933381119 0.541002606
H -0.704790233 -2.935093439 -1.622826460

