11

O -4.256867649 -0.448762636 0.739168566
C -1.921026471 -0.771529483 1.350114811
N -1.271453997 1.776622010 0.692213577
C 2.559791148 1.446966015 -0.140803550
C 1.861320706 -0.981787064 -0.520950495
C 0.035171450 -2.527838676 -0.294521338
H -1.519296926 -1.339823684 3.321899609
H -1.586386191 2.876918296 2.258756245
H 2.604405333 2.746419479 -1.720826070
H 3.733282101 1.925101552 1.474542920
H -0.334359353 -4.478177501 -0.726790784

