12

C 2.618403970 0.870656069 -0.700979676
H 3.753201704 1.680132896 0.816558425
H 3.270600121 1.638279204 -2.492756590
C 2.335872283 -2.039886786 -0.681837620
H 3.432105545 -3.107083026 0.695193335
H 2.608105227 -2.865895467 -2.548857098
C -0.470286238 -1.746874281 -0.066352404
H -1.887922702 -3.006831676 -0.858034323
O -0.839939024 -1.353304196 2.628751128
C -0.789349676 1.155059416 2.540676643
C -0.290504196 1.143764938 -0.294046431
H -1.368509575 2.374139275 -1.530134713

