17

C -4.069774899 -0.608652250 -0.193840982
C -2.137125044 -0.616692052 -2.280179069
N -0.522407984 1.579332864 -2.741337495
C 0.615125866 -0.744346037 -1.803895218
C 1.626286284 -0.811672236 0.868267776
C 3.975059841 0.933083757 1.345754192
N 0.949369851 0.950345876 2.613323593
H -5.740929328 0.453485685 -0.775579733
H -3.340241706 0.254007669 1.530273476
H -4.668306720 -2.534588494 0.244851549
H -2.791147142 -1.489805350 -4.019928629
H -0.683446457 2.768927176 -1.233817456
H 1.787731143 -1.742794193 -3.163649049
H 2.034715550 -2.746629239 1.506115557
H 5.474513056 -0.110719224 2.271884664
H 4.424544447 1.925954555 -0.392848323
H 3.356278168 2.463702240 2.717946163

