10

N 3.453942540 0.343047936 0.218402224
C 0.997742267 -0.162482356 -0.048776590
O 0.480841984 -2.360802004 -1.047211234
N -0.682647821 1.531335219 0.684826354
C -3.136237740 0.906741674 0.360794808
O -3.979634811 -1.075544257 -0.543534423
H 4.752651660 -0.926319180 -0.320183327
H 3.960061992 2.001753719 0.979665241
H -1.435338965 -2.414873739 -1.102778668
H -4.464593904 2.368319883 0.991837836

