12

C -0.889342399 -4.008593825 -1.066582552
O -0.389082269 -1.662302574 -2.277457088
C -0.036400774 0.312231454 -0.769659939
N -0.096166084 0.128355338 1.686150578
O 0.308510961 2.457489199 2.667289673
C 0.726985369 4.065114305 0.610259632
C 0.333376412 2.854154523 -1.757063212
H 0.694371228 -4.562721108 0.134991660
H -2.592465835 -3.883292133 0.092483820
H -1.155597232 -5.377009065 -2.574959167
H 0.438656097 6.040971444 1.060065057
H 2.773036328 3.815835052 -0.101601824

