10

N 3.281629677 0.381690889 -0.592699428
C 0.753825773 -0.077301515 -0.177262471
N -0.317524841 -2.270826474 -0.130694158
N -2.830813249 -1.646851455 0.177452748
C -3.390931418 0.797531982 0.354155104
N -1.011164519 1.795212795 0.111437641
H 4.048832255 1.702795626 0.543107288
H 4.306231699 -1.223282799 -0.608143989
H -4.087788392 -3.062305286 0.259466181
H -0.664311336 3.658459548 0.062071815

