10

N 3.465914068 0.164937280 -0.582335962
C 0.940679946 -0.068859863 -0.093954481
N -0.351646417 -2.150306828 -0.279404209
N -2.766835457 -1.366259157 0.157173265
C -2.963473573 1.053299667 0.833105037
N -0.503693270 1.968495635 0.682405161
H 4.327592596 1.581718549 0.343593330
H 4.437889749 -1.466850545 -0.628938346
H -4.173781910 -2.633996724 0.048483078
H -2.324660085 2.972943406 -0.481236162

