10

N -3.214562523 0.166262848 0.660011548
C -1.007981030 1.287347803 0.090091673
O -0.665326478 3.526747470 -0.203055929
C 1.151190031 -0.575292952 -0.178366978
O 0.915429765 -2.971547957 0.137929031
N 3.466535240 -0.082103479 -0.742173136
H -3.294599945 -1.720022823 0.867617691
H -4.770188942 1.231193590 0.877332433
H 3.287394873 -2.576885157 -0.426571563
H 4.126417134 1.674370724 -1.077797547

