13

C 2.700062645 -0.431215716 1.383759003
C -0.017518082 0.671416480 -1.977312549
C -2.000565308 -1.069450041 -1.035074392
C -2.143782889 1.006690989 0.989046182
O -0.940065917 2.648119252 -0.776505037
H 3.866046209 1.263105055 1.289755919
H 2.880006505 -1.239169028 3.281746292
H 3.438637043 -1.837407640 0.075358461
H 1.231380144 0.854493128 -3.582696346
H -3.659175584 -0.917051339 -2.258284022
H -1.572791199 -3.017231670 -0.557379237
H 0.290225707 0.194070357 1.860404378
H -3.876900928 1.768784390 1.787430695

