16

C -3.352353868 0.874011485 -1.298568506
C -1.521985515 -0.415560866 0.435548745
C -0.447950961 0.768202564 2.562820643
C 1.641056743 0.632340401 -0.440852393
O 1.620712820 2.394935352 -1.974247017
C 3.104729278 -1.827165570 -0.760864455
H -2.339047099 1.530312707 -2.983676389
H -4.212771816 2.533878202 -0.430630808
H -4.857894647 -0.414624091 -1.858240226
H -1.578461228 -2.461097555 0.477985682
H 2.288216490 1.260682993 1.693455465
H 0.211525738 -0.333038548 4.161688985
H -0.830419056 2.750437283 2.922967709
H 2.913202436 -3.072675101 0.869320486
H 2.428189411 -2.793088893 -2.449164142
H 5.092880238 -1.358061336 -1.030484758

