14

O 0.965793159 3.025277463 -0.536976733
C 1.736287601 0.966416164 -1.412208774
C 3.038168286 -0.921156845 0.272559848
N 0.389932155 -1.840913346 0.045123145
C -1.502715543 -0.544634433 1.560687938
C -2.517748105 1.698543799 0.069126862
C -0.033135800 -0.752688233 -2.650300393
H 4.327436958 -2.283511733 -0.556816684
H 3.645946632 -0.218576495 2.109664035
H -0.743587029 0.026792027 3.389877064
H -3.074497326 -1.853800239 1.884732429
H -2.750475890 3.475825172 1.063705406
H -3.977305516 1.322739860 -1.299982304
H 0.667291018 -2.077211277 -4.063412985

