12

C -1.328333223 1.337715127 0.018722027
C -0.937785943 -1.282212000 1.183595149
N -0.598544691 -3.149819069 -0.757353022
C 1.579062104 -1.592498775 -0.103913621
C 1.275444022 0.984759773 -1.223324184
N 2.799393113 2.333017342 -2.444561620
H -1.276054479 2.888826745 1.376975000
H 2.023616452 4.041408050 -2.875346611
H -2.979276880 1.547951864 -1.202084816
H -1.485789115 -1.884756088 3.056452105
H -1.396215606 -2.663755791 -2.430939926
H 3.306049550 -2.500653510 0.498854853

