15

O 1.085341939 -5.215869132 -0.107077419
C 0.473337201 -2.909838176 -0.344589083
C -1.656117652 -1.698310380 0.848351272
C -2.271170914 0.995421003 0.531151369
C -0.220543322 2.477469273 -0.855089922
C 2.312156863 1.588885448 0.062424495
C 2.618719611 -0.858530641 0.412646757
H 0.175449449 -2.186685417 -2.370146681
H -2.831263590 -2.821213857 2.115946600
H -4.110772413 1.145592322 -0.417284769
H -2.590484117 1.781967535 2.423716051
H -0.362200972 2.115546601 -2.894490935
H -0.492937082 4.500828930 -0.587996731
H 3.826871336 2.924795358 0.399041220
H 4.286660769 -1.817633451 1.097487246

