14

O -3.929282964 -0.098422549 -0.615622070
C -1.489111046 -0.168396046 0.460492430
C -0.028201007 -2.319790336 -0.746244267
N 2.671132261 -2.190959051 -0.251615144
C -0.067463015 2.275859193 -0.052504321
C 3.610053477 -0.139183979 0.488968203
O 2.465159843 2.116220213 0.844787078
H -5.013696311 0.921438546 0.416363168
H -1.590699359 -0.472218861 2.510067483
H -0.730443549 -4.134842383 -0.065508584
H -0.352718439 -2.284754606 -2.788504001
H -0.922724108 3.886805153 0.907326072
H -0.058261428 2.644743483 -2.088420490
H 5.604964724 -0.001631457 0.956250533

