14

O -4.209396803 -0.018574231 -0.486959935
C -1.671913041 -0.142914885 0.320669913
C -0.084210845 -2.203788364 -0.892894838
N 2.349475364 -0.982568144 -0.990599726
C -0.175922126 2.143312215 -0.514101050
C 3.632430517 0.091956152 0.817951739
O 3.142343256 2.259423583 1.603898491
H -5.298541117 0.289791032 0.925228411
H -1.563068048 -0.299997178 2.380645621
H -0.090130941 -4.015345420 0.100483239
H -0.733820055 -2.536198219 -2.824593802
H -0.466331779 3.897426037 0.497652761
H 0.002657408 2.372550167 -2.540352669
H 5.335137288 -0.820201628 1.578806008

