14

C 2.462309399 -0.413430653 0.075356476
C 0.523447352 0.783418865 1.865147156
C -1.730384758 1.748030491 0.320925989
C -2.702211642 -0.300561091 -1.339466828
O -1.195933417 -2.112872393 -2.045854522
C 1.205685292 -2.323961831 -1.557325529
H 3.353860566 1.085775253 -1.049924049
H 3.986265067 -1.321597729 1.132151456
H 1.380686913 2.325504452 2.928543044
H -1.132744604 3.403372959 -0.779465823
H -3.250609086 2.397603097 1.558257145
H -4.645451900 -0.606482863 -1.866451880
H -0.120873516 -0.624817704 3.230745400
H 2.026790833 -4.054635679 -2.248223630

