24

C     3.35712  -0.81219   1.07115
N     2.01678  -0.26599   1.11380
C     1.56119   0.55660   0.14593
O     2.27332   0.93299  -0.79967
C     0.20453   1.07915   0.34878
C    -0.87902   1.58729   0.50750
C    -2.24424   2.13156   0.68459
C    -2.42490  -0.81202  -0.78142
C    -2.47451  -1.47511   0.53398
O    -1.34157  -0.88588  -1.49998
C    -0.22786  -1.56282  -1.27304
H     3.49885  -1.51092   0.25020
H     4.09498   0.01678   0.94488
H     3.57387  -1.30611   2.02488
H     1.34397  -0.66758   1.76321
H    -2.00756   3.04227   1.24467
H    -2.88907   1.48957   1.29397
H    -2.73989   2.37660  -0.24181
H    -3.19256  -0.17845  -1.20618
H    -2.42830  -2.53650   0.37418
H    -3.42491  -1.20806   1.05368
H    -1.64188  -1.20939   1.24694
H     0.52057  -1.47102  -2.03078
H    -0.10194  -2.04766  -0.30444
24

C     3.35793  -0.80952   1.07213
N     2.01671  -0.26536   1.11469
C     1.55905   0.55414   0.14423
O     2.27330   0.93684  -0.79694
C     0.19806   1.06011   0.33716
C    -0.89067   1.56197   0.49329
C    -2.23958   2.12853   0.68489
C    -2.41672  -0.79554  -0.77235
C    -2.47447  -1.47001   0.53686
O    -1.34088  -0.88298  -1.50009
C    -0.22396  -1.54857  -1.26505
H     3.49955  -1.51019   0.25056
H     4.09488   0.01784   0.94518
H     3.57436  -1.30515   2.02522
H     1.34374  -0.66977   1.76160
H    -2.00033   3.03985   1.24451
H    -2.88909   1.49171   1.29544
H    -2.73981   2.37864  -0.24005
H    -3.19172  -0.17713  -1.20451
H    -2.43224  -2.53429   0.37155
H    -3.42427  -1.20489   1.05489
H    -1.64177  -1.21261   1.24862
H     0.52117  -1.47011  -2.02887
H    -0.10161  -2.04451  -0.30262
24

C     3.35874  -0.80684   1.07311
N     2.01663  -0.26472   1.11557
C     1.55692   0.55167   0.14252
O     2.27328   0.94070  -0.79420
C     0.19159   1.04107   0.32554
C    -0.90231   1.53665   0.47908
C    -2.23492   2.12550   0.68518
C    -2.40853  -0.77905  -0.76329
C    -2.47443  -1.46491   0.53973
O    -1.34019  -0.88009  -1.50020
C    -0.22007  -1.53431  -1.25706
H     3.50024  -1.50946   0.25093
H     4.09479   0.01890   0.94548
H     3.57485  -1.30420   2.02556
H     1.34352  -0.67196   1.75998
H    -1.99310   3.03743   1.24435
H    -2.88910   1.49386   1.29690
H    -2.73973   2.38068  -0.23829
H    -3.19088  -0.17581  -1.20285
H    -2.43618  -2.53208   0.36893
H    -3.42363  -1.20171   1.05609
H    -1.64165  -1.21582   1.25030
H     0.52177  -1.46920  -2.02697
H    -0.10128  -2.04137  -0.30081
24

C     3.35955  -0.80416   1.07408
N     2.01656  -0.26409   1.11645
C     1.55479   0.54921   0.14082
O     2.27327   0.94455  -0.79146
C     0.18511   1.02203   0.31393
C    -0.91395   1.51134   0.46486
C    -2.23026   2.12248   0.68547
C    -2.40035  -0.76257  -0.75422
C    -2.47438  -1.45982   0.54260
O    -1.33949  -0.87719  -1.50031
C    -0.21618  -1.52006  -1.24907
H     3.50094  -1.50873   0.25130
H     4.09469   0.01996   0.94578
H     3.57534  -1.30324   2.02589
H     1.34330  -0.67416   1.75837
H    -1.98587   3.03501   1.24419
H    -2.88912   1.49600   1.29837
H    -2.73964   2.38271  -0.23653
H    -3.19004  -0.17448  -1.20119
H    -2.44012  -2.52986   0.36630
H    -3.42298  -1.19854   1.05730
H    -1.64154  -1.21904   1.25198
H     0.52237  -1.46829  -2.02506
H    -0.10095  -2.03822  -0.29899
24

C     3.36036  -0.80149   1.07506
N     2.01649  -0.26346   1.11733
C     1.55266   0.54674   0.13912
O     2.27325   0.94840  -0.78872
C     0.17864   1.00299   0.30231
C    -0.92560   1.48602   0.45065
C    -2.22559   2.11945   0.68577
C    -2.39216  -0.74608  -0.74516
C    -2.47434  -1.45472   0.54548
O    -1.33880  -0.87429  -1.50042
C    -0.21228  -1.50580  -1.24108
H     3.50164  -1.50800   0.25167
H     4.09459   0.02102   0.94607
H     3.57583  -1.30228   2.02623
H     1.34307  -0.67635   1.75676
H    -1.97863   3.03260   1.24403
H    -2.88913   1.49815   1.29983
H    -2.73956   2.38475  -0.23477
H    -3.18920  -0.17316  -1.19952
H    -2.44406  -2.52765   0.36368
H    -3.42234  -1.19537   1.05850
H    -1.64143  -1.22226   1.25366
H     0.52297  -1.46737  -2.02316
H    -0.10062  -2.03508  -0.29717
24

C     3.36117  -0.79881   1.07604
N     2.01641  -0.26283   1.11822
C     1.55053   0.54428   0.13742
O     2.27323   0.95226  -0.78599
C     0.17216   0.98396   0.29069
C    -0.93724   1.46071   0.43644
C    -2.22093   2.11642   0.68606
C    -2.38397  -0.72960  -0.73609
C    -2.47430  -1.44962   0.54835
O    -1.33811  -0.87140  -1.50053
C    -0.20839  -1.49155  -1.23309
H     3.50234  -1.50727   0.25203
H     4.09449   0.02208   0.94637
H     3.57632  -1.30133   2.02657
H     1.34285  -0.67854   1.75515
H    -1.97140   3.03018   1.24387
H    -2.88914   1.50029   1.30130
H    -2.73948   2.38679  -0.23301
H    -3.18836  -0.17184  -1.19786
H    -2.44800  -2.52544   0.36105
H    -3.42169  -1.19219   1.05970
H    -1.64131  -1.22547   1.25534
H     0.52357  -1.46646  -2.02125
H    -0.10029  -2.03193  -0.29535
24

C     3.36198  -0.79613   1.07702
N     2.01634  -0.26220   1.11910
C     1.54839   0.54181   0.13572
O     2.27321   0.95611  -0.78325
C     0.16569   0.96492   0.27907
C    -0.94889   1.43539   0.42222
C    -2.21627   2.11340   0.68635
C    -2.37579  -0.71311  -0.72703
C    -2.47425  -1.44452   0.55122
O    -1.33742  -0.86850  -1.50063
C    -0.20450  -1.47729  -1.22510
H     3.50304  -1.50654   0.25240
H     4.09439   0.02314   0.94667
H     3.57681  -1.30037   2.02690
H     1.34263  -0.68073   1.75354
H    -1.96417   3.02776   1.24370
H    -2.88916   1.50244   1.30277
H    -2.73939   2.38883  -0.23125
H    -3.18752  -0.17052  -1.19620
H    -2.45194  -2.52323   0.35843
H    -3.42105  -1.18902   1.06091
H    -1.64120  -1.22869   1.25702
H     0.52417  -1.46555  -2.01934
H    -0.09996  -2.02879  -0.29353
24

C     3.36279  -0.79346   1.07799
N     2.01627  -0.26157   1.11998
C     1.54626   0.53935   0.13401
O     2.27319   0.95997  -0.78051
C     0.15921   0.94588   0.26745
C    -0.96053   1.41007   0.40801
C    -2.21161   2.11037   0.68664
C    -2.36760  -0.69663  -0.71796
C    -2.47421  -1.43943   0.55410
O    -1.33673  -0.86560  -1.50074
C    -0.20060  -1.46304  -1.21711
H     3.50374  -1.50580   0.25277
H     4.09429   0.02420   0.94697
H     3.57730  -1.29941   2.02724
H     1.34240  -0.68292   1.75193
H    -1.95694   3.02535   1.24354
H    -2.88917   1.50458   1.30423
H    -2.73931   2.39086  -0.22948
H    -3.18668  -0.16919  -1.19454
H    -2.45588  -2.52102   0.35580
H    -3.42041  -1.18584   1.06211
H    -1.64108  -1.23191   1.25870
H     0.52478  -1.46463  -2.01744
H    -0.09963  -2.02564  -0.29171
24

C     3.36360  -0.79078   1.07897
N     2.01619  -0.26093   1.12086
C     1.54413   0.53689   0.13231
O     2.27318   0.96382  -0.77777
C     0.15274   0.92684   0.25583
C    -0.97217   1.38476   0.39380
C    -2.20694   2.10734   0.68694
C    -2.35942  -0.68014  -0.70890
C    -2.47417  -1.43433   0.55697
O    -1.33604  -0.86271  -1.50085
C    -0.19671  -1.44878  -1.20912
H     3.50444  -1.50507   0.25314
H     4.09419   0.02525   0.94727
H     3.57779  -1.29846   2.02758
H     1.34218  -0.68511   1.75032
H    -1.94971   3.02293   1.24338
H    -2.88919   1.50673   1.30570
H    -2.73923   2.39290  -0.22772
H    -3.18584  -0.16787  -1.19287
H    -2.45982  -2.51880   0.35318
H    -3.41976  -1.18267   1.06332
H    -1.64097  -1.23512   1.26038
H     0.52538  -1.46372  -2.01553
H    -0.09930  -2.02250  -0.28989
24

C     3.36441  -0.78810   1.07995
N     2.01612  -0.26030   1.12175
C     1.54200   0.53442   0.13061
O     2.27316   0.96768  -0.77503
C     0.14626   0.90780   0.24421
C    -0.98382   1.35944   0.37959
C    -2.20228   2.10432   0.68723
C    -2.35123  -0.66366  -0.69984
C    -2.47413  -1.42923   0.55984
O    -1.33535  -0.85981  -1.50096
C    -0.19281  -1.43453  -1.20113
H     3.50513  -1.50434   0.25350
H     4.09409   0.02631   0.94756
H     3.57828  -1.29750   2.02791
H     1.34196  -0.68731   1.74871
H    -1.94248   3.02051   1.24322
H    -2.88920   1.50887   1.30716
H    -2.73914   2.39494  -0.22596
H    -3.18500  -0.16655  -1.19121
H    -2.46376  -2.51659   0.35055
H    -3.41912  -1.17949   1.06452
H    -1.64086  -1.23834   1.26206
H     0.52598  -1.46281  -2.01363
H    -0.09896  -2.01935  -0.28807
24

C     3.36522  -0.78542   1.08093
N     2.01605  -0.25967   1.12263
C     1.53987   0.53196   0.12891
O     2.27314   0.97153  -0.77230
C     0.13979   0.88876   0.23259
C    -0.99546   1.33412   0.36537
C    -2.19762   2.10129   0.68752
C    -2.34305  -0.64717  -0.69077
C    -2.47408  -1.42413   0.56272
O    -1.33466  -0.85691  -1.50107
C    -0.18892  -1.42027  -1.19314
H     3.50583  -1.50361   0.25387
H     4.09399   0.02737   0.94786
H     3.57877  -1.29654   2.02825
H     1.34173  -0.68950   1.74709
H    -1.93525   3.01809   1.24306
H    -2.88922   1.51102   1.30863
H    -2.73906   2.39697  -0.22420
H    -3.18416  -0.16522  -1.18955
H    -2.46770  -2.51438   0.34793
H    -3.41847  -1.17632   1.06573
H    -1.64074  -1.24155   1.26374
H     0.52658  -1.46189  -2.01172
H    -0.09863  -2.01621  -0.28626
24

C     3.36603  -0.78275   1.08191
N     2.01597  -0.25904   1.12351
C     1.53774   0.52949   0.12720
O     2.27312   0.97538  -0.76956
C     0.13332   0.86972   0.22097
C    -1.00711   1.30881   0.35116
C    -2.19296   2.09826   0.68782
C    -2.33486  -0.63069  -0.68171
C    -2.47404  -1.41904   0.56559
O    -1.33396  -0.85402  -1.50117
C    -0.18503  -1.40602  -1.18515
H     3.50653  -1.50288   0.25424
H     4.09389   0.02843   0.94816
H     3.57926  -1.29559   2.02859
H     1.34151  -0.69169   1.74548
H    -1.92801   3.01568   1.24290
H    -2.88923   1.51316   1.31009
H    -2.73897   2.39901  -0.22244
H    -3.18332  -0.16390  -1.18788
H    -2.47164  -2.51217   0.34530
H    -3.41783  -1.17314   1.06693
H    -1.64063  -1.24477   1.26542
H     0.52718  -1.46098  -2.00981
H    -0.09830  -2.01306  -0.28444
24

C     3.36684  -0.78007   1.08288
N     2.01590  -0.25841   1.12439
C     1.53560   0.52703   0.12550
O     2.27310   0.97924  -0.76682
C     0.12684   0.85068   0.20935
C    -1.01875   1.28349   0.33695
C    -2.18829   2.09524   0.68811
C    -2.32668  -0.61420  -0.67264
C    -2.47400  -1.41394   0.56847
O    -1.33327  -0.85112  -1.50128
C    -0.18113  -1.39176  -1.17716
H     3.50723  -1.50215   0.25461
H     4.09379   0.02949   0.94846
H     3.57975  -1.29463   2.02893
H     1.34129  -0.69388   1.74387
H    -1.92078   3.01326   1.24274
H    -2.88924   1.51531   1.31156
H    -2.73889   2.40105  -0.22068
H    -3.18248  -0.16258  -1.18622
H    -2.47558  -2.50996   0.34268
H    -3.41719  -1.16997   1.06813
H    -1.64051  -1.24799   1.26710
H     0.52778  -1.46007  -2.00791
H    -0.09797  -2.00992  -0.28262
24

C     3.36765  -0.77739   1.08386
N     2.01583  -0.25778   1.12527
C     1.53347   0.52456   0.12380
O     2.27308   0.98309  -0.76408
C     0.12037   0.83164   0.19774
C    -1.03039   1.25818   0.32274
C    -2.18363   2.09221   0.68840
C    -2.31849  -0.59772  -0.66358
C    -2.47395  -1.40884   0.57134
O    -1.33258  -0.84822  -1.50139
C    -0.17724  -1.37751  -1.16917
H     3.50793  -1.50142   0.25498
H     4.09369   0.03055   0.94876
H     3.58024  -1.29367   2.02926
H     1.34107  -0.69607   1.74226
H    -1.91355   3.01084   1.24258
H    -2.88926   1.51745   1.31303
H    -2.73881   2.40309  -0.21892
H    -3.18164  -0.16126  -1.18456
H    -2.47952  -2.50774   0.34005
H    -3.41654  -1.16680   1.06934
H    -1.64040  -1.25120   1.26878
H     0.52838  -1.45915  -2.00600
H    -0.09764  -2.00677  -0.28080
24

C     3.36846  -0.77472   1.08484
N     2.01576  -0.25715   1.12616
C     1.53134   0.52210   0.12210
O     2.27307   0.98695  -0.76135
C     0.11389   0.81261   0.18612
C    -1.04204   1.23286   0.30852
C    -2.17897   2.08918   0.68869
C    -2.31031  -0.58123  -0.65451
C    -2.47391  -1.40375   0.57421
O    -1.33189  -0.84533  -1.50150
C    -0.17334  -1.36325  -1.16118
H     3.50863  -1.50069   0.25534
H     4.09359   0.03161   0.94905
H     3.58073  -1.29272   2.02960
H     1.34084  -0.69826   1.74065
H    -1.90632   3.00842   1.24242
H    -2.88927   1.51960   1.31449
H    -2.73872   2.40512  -0.21716
H    -3.18080  -0.15993  -1.18289
H    -2.48346  -2.50553   0.33743
H    -3.41590  -1.16362   1.07054
H    -1.64028  -1.25442   1.27046
H     0.52898  -1.45824  -2.00410
H    -0.09731  -2.00363  -0.27898
24

C     3.36927  -0.77204   1.08582
N     2.01568  -0.25651   1.12704
C     1.52921   0.51963   0.12040
O     2.27305   0.99080  -0.75861
C     0.10742   0.79357   0.17450
C    -1.05368   1.20754   0.29431
C    -2.17431   2.08615   0.68899
C    -2.30212  -0.56475  -0.64545
C    -2.47387  -1.39865   0.57709
O    -1.33120  -0.84243  -1.50161
C    -0.16945  -1.34900  -1.15319
H     3.50933  -1.49996   0.25571
H     4.09349   0.03267   0.94935
H     3.58122  -1.29176   2.02994
H     1.34062  -0.70045   1.73904
H    -1.89909   3.00601   1.24226
H    -2.88929   1.52174   1.31596
H    -2.73864   2.40716  -0.21540
H    -3.17996  -0.15861  -1.18123
H    -2.48740  -2.50332   0.33480
H    -3.41525  -1.16045   1.07175
H    -1.64017  -1.25764   1.27214
H     0.52958  -1.45733  -2.00219
H    -0.09698  -2.00049  -0.27716
24

C     3.37008  -0.76936   1.08679
N     2.01561  -0.25588   1.12792
C     1.52708   0.51717   0.11869
O     2.27303   0.99466  -0.75587
C     0.10094   0.77453   0.16288
C    -1.06533   1.18223   0.28010
C    -2.16964   2.08313   0.68928
C    -2.29393  -0.54826  -0.63638
C    -2.47382  -1.39355   0.57996
O    -1.33051  -0.83954  -1.50172
C    -0.16556  -1.33474  -1.14520
H     3.51002  -1.49923   0.25608
H     4.09340   0.03373   0.94965
H     3.58172  -1.29080   2.03027
H     1.34040  -0.70265   1.73743
H    -1.89186   3.00359   1.24210
H    -2.88930   1.52389   1.31742
H    -2.73856   2.40920  -0.21364
H    -3.17912  -0.15729  -1.17957
H    -2.49134  -2.50111   0.33218
H    -3.41461  -1.15727   1.07295
H    -1.64006  -1.26085   1.27382
H     0.53019  -1.45642  -2.00029
H    -0.09665  -1.99734  -0.27534
24

C     3.37089  -0.76669   1.08777
N     2.01554  -0.25525   1.12880
C     1.52495   0.51470   0.11699
O     2.27301   0.99851  -0.75313
C     0.09447   0.75549   0.15126
C    -1.07697   1.15691   0.26588
C    -2.16498   2.08010   0.68957
C    -2.28575  -0.53178  -0.62732
C    -2.47378  -1.38845   0.58283
O    -1.32982  -0.83664  -1.50182
C    -0.16166  -1.32049  -1.13721
H     3.51072  -1.49850   0.25645
H     4.09330   0.03479   0.94995
H     3.58221  -1.28985   2.03061
H     1.34017  -0.70484   1.73582
H    -1.88463   3.00117   1.24194
H    -2.88932   1.52603   1.31889
H    -2.73847   2.41123  -0.21188
H    -3.17828  -0.15596  -1.17791
H    -2.49528  -2.49889   0.32955
H    -3.41397  -1.15410   1.07415
H    -1.63994  -1.26407   1.27550
H     0.53079  -1.45550  -1.99838
H    -0.09632  -1.99420  -0.27352
24

C     3.37170  -0.76401   1.08875
N     2.01546  -0.25462   1.12969
C     1.52281   0.51224   0.11529
O     2.27299   1.00236  -0.75039
C     0.08799   0.73645   0.13964
C    -1.08861   1.13159   0.25167
C    -2.16032   2.07707   0.68986
C    -2.27756  -0.51529  -0.61825
C    -2.47374  -1.38336   0.58571
O    -1.32913  -0.83374  -1.50193
C    -0.15777  -1.30623  -1.12922
H     3.51142  -1.49777   0.25681
H     4.09320   0.03584   0.95025
H     3.58270  -1.28889   2.03095
H     1.33995  -0.70703   1.73420
H    -1.87739   2.99875   1.24178
H    -2.88933   1.52818   1.32035
H    -2.73839   2.41327  -0.21012
H    -3.17744  -0.15464  -1.17624
H    -2.49922  -2.49668   0.32693
H    -3.41332  -1.15092   1.07536
H    -1.63983  -1.26729   1.27718
H     0.53139  -1.45459  -1.99647
H    -0.09598  -1.99105  -0.27171
24

C     3.37251  -0.76133   1.08973
N     2.01539  -0.25399   1.13057
C     1.52068   0.50977   0.11359
O     2.27297   1.00622  -0.74766
C     0.08152   0.71741   0.12802
C    -1.10026   1.10628   0.23746
C    -2.15566   2.07405   0.69016
C    -2.26938  -0.49881  -0.60919
C    -2.47369  -1.37826   0.58858
O    -1.32844  -0.83085  -1.50204
C    -0.15388  -1.29198  -1.12123
H     3.51212  -1.49704   0.25718
H     4.09310   0.03690   0.95054
H     3.58319  -1.28793   2.03128
H     1.33973  -0.70922   1.73259
H    -1.87016   2.99634   1.24162
H    -2.88934   1.53032   1.32182
H    -2.73831   2.41531  -0.20836
H    -3.17660  -0.15332  -1.17458
H    -2.50316  -2.49447   0.32430
H    -3.41268  -1.14775   1.07656
H    -1.63971  -1.27050   1.27886
H     0.53199  -1.45368  -1.99457
H    -0.09565  -1.98791  -0.26989
24

C     3.37332  -0.75865   1.09071
N     2.01532  -0.25336   1.13145
C     1.51855   0.50731   0.11188
O     2.27296   1.01007  -0.74492
C     0.07505   0.69837   0.11640
C    -1.11190   1.08096   0.22325
C    -2.15099   2.07102   0.69045
C    -2.26119  -0.48233  -0.60012
C    -2.47365  -1.37316   0.59145
O    -1.32774  -0.82795  -1.50215
C    -0.14998  -1.27772  -1.11324
H     3.51282  -1.49631   0.25755
H     4.09300   0.03796   0.95084
H     3.58368  -1.28697   2.03162
H     1.33950  -0.71141   1.73098
H    -1.86293   2.99392   1.24146
H    -2.88936   1.53247   1.32328
H    -2.73822   2.41735  -0.20659
H    -3.17576  -0.15199  -1.17292
H    -2.50710  -2.49226   0.32167
H    -3.41203  -1.14457   1.07777
H    -1.63960  -1.27372   1.28054
H     0.53259  -1.45276  -1.99266
H    -0.09532  -1.98476  -0.26807
24

C     3.37251  -0.76133   1.08973
N     2.01539  -0.25399   1.13057
C     1.52068   0.50977   0.11359
O     2.27297   1.00622  -0.74766
C     0.08152   0.71741   0.12802
C    -1.10026   1.10628   0.23746
C    -2.15566   2.07405   0.69016
C    -2.26938  -0.49881  -0.60919
C    -2.47369  -1.37826   0.58858
O    -1.32844  -0.83085  -1.50204
C    -0.15388  -1.29198  -1.12123
H     3.51212  -1.49704   0.25718
H     4.09310   0.03690   0.95054
H     3.58319  -1.28793   2.03128
H     1.33973  -0.70922   1.73259
H    -1.87016   2.99634   1.24162
H    -2.88934   1.53032   1.32182
H    -2.73831   2.41531  -0.20836
H    -3.17660  -0.15332  -1.17458
H    -2.50316  -2.49447   0.32430
H    -3.41268  -1.14775   1.07656
H    -1.63971  -1.27050   1.27886
H     0.53199  -1.45368  -1.99457
H    -0.09565  -1.98791  -0.26989
24

C     3.37170  -0.76401   1.08875
N     2.01546  -0.25462   1.12969
C     1.52281   0.51224   0.11529
O     2.27299   1.00236  -0.75039
C     0.08799   0.73645   0.13964
C    -1.08861   1.13159   0.25167
C    -2.16032   2.07707   0.68986
C    -2.27756  -0.51529  -0.61825
C    -2.47374  -1.38336   0.58571
O    -1.32913  -0.83374  -1.50193
C    -0.15777  -1.30623  -1.12922
H     3.51142  -1.49777   0.25681
H     4.09320   0.03584   0.95025
H     3.58270  -1.28889   2.03095
H     1.33995  -0.70703   1.73420
H    -1.87739   2.99875   1.24178
H    -2.88933   1.52818   1.32035
H    -2.73839   2.41327  -0.21012
H    -3.17744  -0.15464  -1.17624
H    -2.49922  -2.49668   0.32693
H    -3.41332  -1.15092   1.07536
H    -1.63983  -1.26729   1.27718
H     0.53139  -1.45459  -1.99647
H    -0.09598  -1.99105  -0.27171
24

C     3.37089  -0.76669   1.08777
N     2.01554  -0.25525   1.12880
C     1.52495   0.51470   0.11699
O     2.27301   0.99851  -0.75313
C     0.09447   0.75549   0.15126
C    -1.07697   1.15691   0.26588
C    -2.16498   2.08010   0.68957
C    -2.28575  -0.53178  -0.62732
C    -2.47378  -1.38845   0.58283
O    -1.32982  -0.83664  -1.50182
C    -0.16166  -1.32049  -1.13721
H     3.51072  -1.49850   0.25645
H     4.09330   0.03479   0.94995
H     3.58221  -1.28985   2.03061
H     1.34017  -0.70484   1.73582
H    -1.88463   3.00117   1.24194
H    -2.88932   1.52603   1.31889
H    -2.73847   2.41123  -0.21188
H    -3.17828  -0.15596  -1.17791
H    -2.49528  -2.49889   0.32955
H    -3.41397  -1.15410   1.07415
H    -1.63994  -1.26407   1.27550
H     0.53079  -1.45550  -1.99838
H    -0.09632  -1.99420  -0.27352
24

C     3.37008  -0.76936   1.08679
N     2.01561  -0.25588   1.12792
C     1.52708   0.51717   0.11869
O     2.27303   0.99466  -0.75587
C     0.10094   0.77453   0.16288
C    -1.06533   1.18223   0.28010
C    -2.16964   2.08313   0.68928
C    -2.29393  -0.54826  -0.63638
C    -2.47382  -1.39355   0.57996
O    -1.33051  -0.83954  -1.50172
C    -0.16556  -1.33474  -1.14520
H     3.51002  -1.49923   0.25608
H     4.09340   0.03373   0.94965
H     3.58172  -1.29080   2.03027
H     1.34040  -0.70265   1.73743
H    -1.89186   3.00359   1.24210
H    -2.88930   1.52389   1.31742
H    -2.73856   2.40920  -0.21364
H    -3.17912  -0.15729  -1.17957
H    -2.49134  -2.50111   0.33218
H    -3.41461  -1.15727   1.07295
H    -1.64006  -1.26085   1.27382
H     0.53019  -1.45642  -2.00029
H    -0.09665  -1.99734  -0.27534
24

C     3.36927  -0.77204   1.08582
N     2.01568  -0.25651   1.12704
C     1.52921   0.51963   0.12040
O     2.27305   0.99080  -0.75861
C     0.10742   0.79357   0.17450
C    -1.05368   1.20754   0.29431
C    -2.17431   2.08615   0.68899
C    -2.30212  -0.56475  -0.64545
C    -2.47387  -1.39865   0.57709
O    -1.33120  -0.84243  -1.50161
C    -0.16945  -1.34900  -1.15319
H     3.50933  -1.49996   0.25571
H     4.09349   0.03267   0.94935
H     3.58122  -1.29176   2.02994
H     1.34062  -0.70045   1.73904
H    -1.89909   3.00601   1.24226
H    -2.88929   1.52174   1.31596
H    -2.73864   2.40716  -0.21540
H    -3.17996  -0.15861  -1.18123
H    -2.48740  -2.50332   0.33480
H    -3.41525  -1.16045   1.07175
H    -1.64017  -1.25764   1.27214
H     0.52958  -1.45733  -2.00219
H    -0.09698  -2.00049  -0.27716
24

C     3.36846  -0.77472   1.08484
N     2.01576  -0.25715   1.12616
C     1.53134   0.52210   0.12210
O     2.27307   0.98695  -0.76135
C     0.11389   0.81261   0.18612
C    -1.04204   1.23286   0.30852
C    -2.17897   2.08918   0.68869
C    -2.31031  -0.58123  -0.65451
C    -2.47391  -1.40375   0.57421
O    -1.33189  -0.84533  -1.50150
C    -0.17334  -1.36325  -1.16118
H     3.50863  -1.50069   0.25534
H     4.09359   0.03161   0.94905
H     3.58073  -1.29272   2.02960
H     1.34084  -0.69826   1.74065
H    -1.90632   3.00842   1.24242
H    -2.88927   1.51960   1.31449
H    -2.73872   2.40512  -0.21716
H    -3.18080  -0.15993  -1.18289
H    -2.48346  -2.50553   0.33743
H    -3.41590  -1.16362   1.07054
H    -1.64028  -1.25442   1.27046
H     0.52898  -1.45824  -2.00410
H    -0.09731  -2.00363  -0.27898
24

C     3.36765  -0.77739   1.08386
N     2.01583  -0.25778   1.12527
C     1.53347   0.52456   0.12380
O     2.27308   0.98309  -0.76408
C     0.12037   0.83164   0.19774
C    -1.03039   1.25818   0.32274
C    -2.18363   2.09221   0.68840
C    -2.31849  -0.59772  -0.66358
C    -2.47395  -1.40884   0.57134
O    -1.33258  -0.84822  -1.50139
C    -0.17724  -1.37751  -1.16917
H     3.50793  -1.50142   0.25498
H     4.09369   0.03055   0.94876
H     3.58024  -1.29367   2.02926
H     1.34107  -0.69607   1.74226
H    -1.91355   3.01084   1.24258
H    -2.88926   1.51745   1.31303
H    -2.73881   2.40309  -0.21892
H    -3.18164  -0.16126  -1.18456
H    -2.47952  -2.50774   0.34005
H    -3.41654  -1.16680   1.06934
H    -1.64040  -1.25120   1.26878
H     0.52838  -1.45915  -2.00600
H    -0.09764  -2.00677  -0.28080
24

C     3.36684  -0.78007   1.08288
N     2.01590  -0.25841   1.12439
C     1.53560   0.52703   0.12550
O     2.27310   0.97924  -0.76682
C     0.12684   0.85068   0.20935
C    -1.01875   1.28349   0.33695
C    -2.18829   2.09524   0.68811
C    -2.32668  -0.61420  -0.67264
C    -2.47400  -1.41394   0.56847
O    -1.33327  -0.85112  -1.50128
C    -0.18113  -1.39176  -1.17716
H     3.50723  -1.50215   0.25461
H     4.09379   0.02949   0.94846
H     3.57975  -1.29463   2.02893
H     1.34129  -0.69388   1.74387
H    -1.92078   3.01326   1.24274
H    -2.88924   1.51531   1.31156
H    -2.73889   2.40105  -0.22068
H    -3.18248  -0.16258  -1.18622
H    -2.47558  -2.50996   0.34268
H    -3.41719  -1.16997   1.06813
H    -1.64051  -1.24799   1.26710
H     0.52778  -1.46007  -2.00791
H    -0.09797  -2.00992  -0.28262
24

C     3.36603  -0.78275   1.08191
N     2.01597  -0.25904   1.12351
C     1.53774   0.52949   0.12720
O     2.27312   0.97538  -0.76956
C     0.13332   0.86972   0.22097
C    -1.00711   1.30881   0.35116
C    -2.19296   2.09826   0.68782
C    -2.33486  -0.63069  -0.68171
C    -2.47404  -1.41904   0.56559
O    -1.33396  -0.85402  -1.50117
C    -0.18503  -1.40602  -1.18515
H     3.50653  -1.50288   0.25424
H     4.09389   0.02843   0.94816
H     3.57926  -1.29559   2.02859
H     1.34151  -0.69169   1.74548
H    -1.92801   3.01568   1.24290
H    -2.88923   1.51316   1.31009
H    -2.73897   2.39901  -0.22244
H    -3.18332  -0.16390  -1.18788
H    -2.47164  -2.51217   0.34530
H    -3.41783  -1.17314   1.06693
H    -1.64063  -1.24477   1.26542
H     0.52718  -1.46098  -2.00981
H    -0.09830  -2.01306  -0.28444
24

C     3.36522  -0.78542   1.08093
N     2.01605  -0.25967   1.12263
C     1.53987   0.53196   0.12891
O     2.27314   0.97153  -0.77230
C     0.13979   0.88876   0.23259
C    -0.99546   1.33412   0.36537
C    -2.19762   2.10129   0.68752
C    -2.34305  -0.64717  -0.69077
C    -2.47408  -1.42413   0.56272
O    -1.33466  -0.85691  -1.50107
C    -0.18892  -1.42027  -1.19314
H     3.50583  -1.50361   0.25387
H     4.09399   0.02737   0.94786
H     3.57877  -1.29654   2.02825
H     1.34173  -0.68950   1.74709
H    -1.93525   3.01809   1.24306
H    -2.88922   1.51102   1.30863
H    -2.73906   2.39697  -0.22420
H    -3.18416  -0.16522  -1.18955
H    -2.46770  -2.51438   0.34793
H    -3.41847  -1.17632   1.06573
H    -1.64074  -1.24155   1.26374
H     0.52658  -1.46189  -2.01172
H    -0.09863  -2.01621  -0.28626
24

C     3.36441  -0.78810   1.07995
N     2.01612  -0.26030   1.12175
C     1.54200   0.53442   0.13061
O     2.27316   0.96768  -0.77503
C     0.14626   0.90780   0.24421
C    -0.98382   1.35944   0.37959
C    -2.20228   2.10432   0.68723
C    -2.35123  -0.66366  -0.69984
C    -2.47413  -1.42923   0.55984
O    -1.33535  -0.85981  -1.50096
C    -0.19281  -1.43453  -1.20113
H     3.50513  -1.50434   0.25350
H     4.09409   0.02631   0.94756
H     3.57828  -1.29750   2.02791
H     1.34196  -0.68731   1.74871
H    -1.94248   3.02051   1.24322
H    -2.88920   1.50887   1.30716
H    -2.73914   2.39494  -0.22596
H    -3.18500  -0.16655  -1.19121
H    -2.46376  -2.51659   0.35055
H    -3.41912  -1.17949   1.06452
H    -1.64086  -1.23834   1.26206
H     0.52598  -1.46281  -2.01363
H    -0.09896  -2.01935  -0.28807
24

C     3.36360  -0.79078   1.07897
N     2.01619  -0.26093   1.12086
C     1.54413   0.53689   0.13231
O     2.27318   0.96382  -0.77777
C     0.15274   0.92684   0.25583
C    -0.97217   1.38476   0.39380
C    -2.20694   2.10734   0.68694
C    -2.35942  -0.68014  -0.70890
C    -2.47417  -1.43433   0.55697
O    -1.33604  -0.86271  -1.50085
C    -0.19671  -1.44878  -1.20912
H     3.50444  -1.50507   0.25314
H     4.09419   0.02525   0.94727
H     3.57779  -1.29846   2.02758
H     1.34218  -0.68511   1.75032
H    -1.94971   3.02293   1.24338
H    -2.88919   1.50673   1.30570
H    -2.73923   2.39290  -0.22772
H    -3.18584  -0.16787  -1.19287
H    -2.45982  -2.51880   0.35318
H    -3.41976  -1.18267   1.06332
H    -1.64097  -1.23512   1.26038
H     0.52538  -1.46372  -2.01553
H    -0.09930  -2.02250  -0.28989
24

C     3.36279  -0.79346   1.07799
N     2.01627  -0.26157   1.11998
C     1.54626   0.53935   0.13401
O     2.27319   0.95997  -0.78051
C     0.15921   0.94588   0.26745
C    -0.96053   1.41007   0.40801
C    -2.21161   2.11037   0.68664
C    -2.36760  -0.69663  -0.71796
C    -2.47421  -1.43943   0.55410
O    -1.33673  -0.86560  -1.50074
C    -0.20060  -1.46304  -1.21711
H     3.50374  -1.50580   0.25277
H     4.09429   0.02420   0.94697
H     3.57730  -1.29941   2.02724
H     1.34240  -0.68292   1.75193
H    -1.95694   3.02535   1.24354
H    -2.88917   1.50458   1.30423
H    -2.73931   2.39086  -0.22948
H    -3.18668  -0.16919  -1.19454
H    -2.45588  -2.52102   0.35580
H    -3.42041  -1.18584   1.06211
H    -1.64108  -1.23191   1.25870
H     0.52478  -1.46463  -2.01744
H    -0.09963  -2.02564  -0.29171
24

C     3.36198  -0.79613   1.07702
N     2.01634  -0.26220   1.11910
C     1.54839   0.54181   0.13572
O     2.27321   0.95611  -0.78325
C     0.16569   0.96492   0.27907
C    -0.94889   1.43539   0.42222
C    -2.21627   2.11340   0.68635
C    -2.37579  -0.71311  -0.72703
C    -2.47425  -1.44452   0.55122
O    -1.33742  -0.86850  -1.50063
C    -0.20450  -1.47729  -1.22510
H     3.50304  -1.50654   0.25240
H     4.09439   0.02314   0.94667
H     3.57681  -1.30037   2.02690
H     1.34263  -0.68073   1.75354
H    -1.96417   3.02776   1.24370
H    -2.88916   1.50244   1.30277
H    -2.73939   2.38883  -0.23125
H    -3.18752  -0.17052  -1.19620
H    -2.45194  -2.52323   0.35843
H    -3.42105  -1.18902   1.06091
H    -1.64120  -1.22869   1.25702
H     0.52417  -1.46555  -2.01934
H    -0.09996  -2.02879  -0.29353
24

C     3.36117  -0.79881   1.07604
N     2.01641  -0.26283   1.11822
C     1.55053   0.54428   0.13742
O     2.27323   0.95226  -0.78599
C     0.17216   0.98396   0.29069
C    -0.93724   1.46071   0.43644
C    -2.22093   2.11642   0.68606
C    -2.38397  -0.72960  -0.73609
C    -2.47430  -1.44962   0.54835
O    -1.33811  -0.87140  -1.50053
C    -0.20839  -1.49155  -1.23309
H     3.50234  -1.50727   0.25203
H     4.09449   0.02208   0.94637
H     3.57632  -1.30133   2.02657
H     1.34285  -0.67854   1.75515
H    -1.97140   3.03018   1.24387
H    -2.88914   1.50029   1.30130
H    -2.73948   2.38679  -0.23301
H    -3.18836  -0.17184  -1.19786
H    -2.44800  -2.52544   0.36105
H    -3.42169  -1.19219   1.05970
H    -1.64131  -1.22547   1.25534
H     0.52357  -1.46646  -2.02125
H    -0.10029  -2.03193  -0.29535
24

C     3.36036  -0.80149   1.07506
N     2.01649  -0.26346   1.11733
C     1.55266   0.54674   0.13912
O     2.27325   0.94840  -0.78872
C     0.17864   1.00299   0.30231
C    -0.92560   1.48602   0.45065
C    -2.22559   2.11945   0.68577
C    -2.39216  -0.74608  -0.74516
C    -2.47434  -1.45472   0.54548
O    -1.33880  -0.87429  -1.50042
C    -0.21228  -1.50580  -1.24108
H     3.50164  -1.50800   0.25167
H     4.09459   0.02102   0.94607
H     3.57583  -1.30228   2.02623
H     1.34307  -0.67635   1.75676
H    -1.97863   3.03260   1.24403
H    -2.88913   1.49815   1.29983
H    -2.73956   2.38475  -0.23477
H    -3.18920  -0.17316  -1.19952
H    -2.44406  -2.52765   0.36368
H    -3.42234  -1.19537   1.05850
H    -1.64143  -1.22226   1.25366
H     0.52297  -1.46737  -2.02316
H    -0.10062  -2.03508  -0.29717
24

C     3.35955  -0.80416   1.07408
N     2.01656  -0.26409   1.11645
C     1.55479   0.54921   0.14082
O     2.27327   0.94455  -0.79146
C     0.18511   1.02203   0.31393
C    -0.91395   1.51134   0.46486
C    -2.23026   2.12248   0.68547
C    -2.40035  -0.76257  -0.75422
C    -2.47438  -1.45982   0.54260
O    -1.33949  -0.87719  -1.50031
C    -0.21618  -1.52006  -1.24907
H     3.50094  -1.50873   0.25130
H     4.09469   0.01996   0.94578
H     3.57534  -1.30324   2.02589
H     1.34330  -0.67416   1.75837
H    -1.98587   3.03501   1.24419
H    -2.88912   1.49600   1.29837
H    -2.73964   2.38271  -0.23653
H    -3.19004  -0.17448  -1.20119
H    -2.44012  -2.52986   0.36630
H    -3.42298  -1.19854   1.05730
H    -1.64154  -1.21904   1.25198
H     0.52237  -1.46829  -2.02506
H    -0.10095  -2.03822  -0.29899
24

C     3.35874  -0.80684   1.07311
N     2.01663  -0.26472   1.11557
C     1.55692   0.55167   0.14252
O     2.27328   0.94070  -0.79420
C     0.19159   1.04107   0.32554
C    -0.90231   1.53665   0.47908
C    -2.23492   2.12550   0.68518
C    -2.40853  -0.77905  -0.76329
C    -2.47443  -1.46491   0.53973
O    -1.34019  -0.88009  -1.50020
C    -0.22007  -1.53431  -1.25706
H     3.50024  -1.50946   0.25093
H     4.09479   0.01890   0.94548
H     3.57485  -1.30420   2.02556
H     1.34352  -0.67196   1.75998
H    -1.99310   3.03743   1.24435
H    -2.88910   1.49386   1.29690
H    -2.73973   2.38068  -0.23829
H    -3.19088  -0.17581  -1.20285
H    -2.43618  -2.53208   0.36893
H    -3.42363  -1.20171   1.05609
H    -1.64165  -1.21582   1.25030
H     0.52177  -1.46920  -2.02697
H    -0.10128  -2.04137  -0.30081
24

C     3.35793  -0.80952   1.07213
N     2.01671  -0.26536   1.11469
C     1.55905   0.55414   0.14423
O     2.27330   0.93684  -0.79694
C     0.19806   1.06011   0.33716
C    -0.89067   1.56197   0.49329
C    -2.23958   2.12853   0.68489
C    -2.41672  -0.79554  -0.77235
C    -2.47447  -1.47001   0.53686
O    -1.34088  -0.88298  -1.50009
C    -0.22396  -1.54857  -1.26505
H     3.49955  -1.51019   0.25056
H     4.09488   0.01784   0.94518
H     3.57436  -1.30515   2.02522
H     1.34374  -0.66977   1.76160
H    -2.00033   3.03985   1.24451
H    -2.88909   1.49171   1.29544
H    -2.73981   2.37864  -0.24005
H    -3.19172  -0.17713  -1.20451
H    -2.43224  -2.53429   0.37155
H    -3.42427  -1.20489   1.05489
H    -1.64177  -1.21261   1.24862
H     0.52117  -1.47011  -2.02887
H    -0.10161  -2.04451  -0.30262
