12

C 2.018589100 -0.730827182 -0.657998290
C 0.956600624 1.684748023 0.225313803
C -2.539924476 0.542031316 -0.073193042
O -2.265683584 -1.762393752 -0.906234056
C 0.025834087 -2.615789440 -0.010451697
C -0.967071993 1.309484868 2.023879370
H 3.706797287 -1.060766787 0.492616565
H 2.590991471 -0.785589216 -2.658862364
H 1.809880604 3.497315855 -0.230879878
H -4.042013102 1.636368597 -0.928714823
H 0.296814482 -4.592372460 -0.471753025
H -1.590812591 2.877790140 3.196273640

