14

C -2.783141015 -0.856056630 -0.056019211
C -0.165063042 0.037514163 0.642184684
C 1.996482441 -1.504612394 -0.554569630
O 2.417887607 0.429512978 -2.403323091
C 0.865620515 2.180152350 -1.039215066
O -0.123588901 0.396505170 3.268077828
H -3.216029687 -2.617042196 0.925252902
H -2.915692887 -1.175421574 -2.088293670
H -4.182775116 0.556915763 0.487748026
H 1.520799788 -3.322956136 -1.409513722
H 3.628374031 -1.737364707 0.704172841
H 1.520683513 0.979045524 3.764536074
H 2.002539524 3.563197642 0.007872410
H -0.468605818 3.171778405 -2.263931789

