14

C 2.187507958 -0.452453743 -1.225033990
C -0.067590704 -2.145329271 -0.690246844
C -2.343527640 -0.593949614 0.036309973
C -0.847182968 -1.740572120 1.979220115
N -0.693714567 0.998922212 1.968366718
C 1.266936985 1.891639869 0.185165003
C -0.908298411 3.041526462 -1.217359850
H 2.454739042 -0.053013545 -3.226878113
H 3.917041243 -1.260602566 -0.441297008
H -0.350266765 -3.957805546 -1.597380051
H -4.334819778 -0.521829520 -0.345609989
H -1.274663527 -2.827759698 3.643191525
H 2.663900412 3.088039897 1.102052163
H -1.616402544 4.590627279 -0.016441619

