14

C 4.006145590 0.893847279 -0.882078707
O 1.450858662 0.192400122 -0.963078983
C 0.582538143 -0.799413035 1.340336442
C -2.212567786 -1.340872841 1.068570052
C -3.737370883 1.006376822 0.767702882
O -5.608689488 0.941968852 -0.809084388
H 4.506991138 1.626904243 -2.738402902
H 5.225490144 -0.728408333 -0.448671778
H 4.342062475 2.366850658 0.539142038
H 0.891157651 0.564544568 2.876373318
H 1.615332978 -2.538108921 1.814743077
H -2.903659867 -2.224705591 2.811896883
H -2.599927267 -2.624983997 -0.510011305
H -5.237346134 2.785759665 0.344318418

