12

C -3.283741900 0.751173769 0.573422898
C -0.577019123 0.122576272 0.271629479
C -1.632990806 -2.236161414 -0.082269680
O 3.468682706 -2.198144527 -1.356208459
C 3.551168949 -0.096175457 -0.502362544
O 5.737157246 1.130133815 -0.179467366
N 1.473833498 1.392407524 0.242450199
H -3.957007344 1.043934165 2.489851836
H -4.101756567 1.935262212 -0.887958080
H -4.021392184 -1.480702672 0.485357088
H -1.931519780 -2.902483910 -2.004895975
H 5.338267185 2.766532855 0.511646750

