16

C -2.422420757 2.665465067 -0.514702664
C -0.046863469 1.183708117 -0.372537263
C 0.331644913 -1.614867236 -0.604462557
C -1.461985237 -3.188836528 1.019601957
C 3.131081395 -2.124620726 -0.217548068
C 4.105409445 0.207016322 0.077139131
N 2.165770117 2.140697873 -0.017134676
H -3.408674321 2.260078732 -2.280602613
H -2.097901151 4.696388939 -0.391821389
H -3.686338205 2.108484033 1.020058912
H -1.074673414 -5.181989404 0.691400598
H -3.448254691 -2.815701072 0.590195805
H -1.136688632 -2.812175693 3.021251193
H -0.046862789 -2.044892916 -2.607839948
H 6.010708179 0.880913842 0.381480203
H 2.472666213 4.019190502 0.165835222

