16

C -2.440495005 2.697692570 -0.184314645
C -0.070428675 1.182857249 -0.167646959
C 0.297290372 -1.467648463 0.064821782
C -1.751093813 -3.306206813 0.759354904
C 3.097505309 -2.034764438 0.230595626
C 4.091118845 0.362831838 -0.135922142
N 2.234193547 2.182264402 -0.288475782
H -3.766825231 1.973973687 -1.588101117
H -2.078314045 4.681426220 -0.612226591
H -3.382962443 2.607454028 1.651407604
H -1.073913971 -5.228180263 0.469209624
H -3.474075569 -3.033296024 -0.345536157
H -2.235966205 -3.113940994 2.755508287
H 1.343981875 -2.118156407 -1.828536812
H 6.042522626 0.952241177 -0.245237904
H 2.554076200 4.040310213 -0.574589634

