8

C -1.717811579 -0.221209772 -0.346360097
C 0.914311406 0.841231842 -0.067819625
C 0.978490210 3.295776243 0.283841853
C 4.727328706 -2.060671619 -0.293573942
N 2.986950793 -0.707771125 -0.187138123
H -3.117850195 1.284884394 -0.185419379
H -2.061041703 -1.603755930 1.141657837
H -1.907272364 -1.110236529 -2.194875150

