8

C -2.097830154 -0.209751228 -0.324143343
C 0.524100876 0.584591199 -0.045407057
C 2.466467325 1.937002990 0.390229692
C 5.049413646 -0.167426220 -0.196512525
N 3.007111866 -1.188574067 -0.532705952
H -3.298924753 1.395169434 0.150599286
H -2.533127679 -1.766690497 0.953331605
H -2.490804692 -0.784368018 -2.263591960

