18

C 4.524974811 -0.066101940 1.416804153
C 2.894975366 -0.563770480 -0.895108331
C 0.413258518 -1.886709158 -0.300102984
O -1.197721684 -2.227071321 -2.004507333
C -4.164943245 0.521376609 -2.216314603
C -4.091855158 2.002910685 -0.099815183
H 6.324470538 0.789343912 0.891106590
H 4.940226915 -1.820785212 2.423439055
H 3.582788130 1.207892171 2.740800379
H 3.897496221 -1.782664938 -2.231945888
H 2.466584488 1.182299818 -1.913538186
H 0.512645016 -3.292421488 1.245208725
H -0.540379223 -0.034793505 1.507539561
H -5.390785792 -1.104761482 -2.328224826
H -3.338348276 1.148513310 -3.973285313
H -3.356401019 3.912733385 -0.218934957
H -1.881053019 0.939734138 1.146004906
H -5.398254008 1.639418917 1.437274706

