11

C -3.291655090 -0.300219750 -0.681271930
C -0.814429687 -0.083831841 -0.263118247
N 0.752755980 -1.719433757 1.117223943
N 3.121872590 -0.446971440 1.404433647
N 3.149249581 1.573405133 -0.212824320
C 0.929453574 1.881321095 -1.107140629
H 0.065612614 -2.210406128 2.827151036
H -4.373656031 -1.887131909 0.016280180
H -4.270324238 1.139064566 -1.747587861
H 4.568444427 -1.617527952 0.952294372
H 0.483470555 3.442617827 -2.343361344

