12

C -3.352981635 0.314648735 1.196530419
C -1.838491454 1.451577513 -0.443746868
C 0.638536473 0.483421309 -1.265798595
O 1.321315970 0.972419030 -3.725207661
C 2.197385065 -0.695572962 0.251239032
C 3.752042906 -1.733405183 1.841498349
H -5.127927515 1.159909568 1.762109197
H -2.846116403 -1.482660144 2.038040127
H -0.176028177 0.995706087 -4.748542016
H 3.722031919 -3.752331183 2.204566780
H -2.396439329 3.239430355 -1.292505773
H 5.145458409 -0.619829413 2.855632837

