12

C -3.189298207 -0.171880229 0.171285305
C -0.777653745 0.781301654 0.647310056
C 1.178525165 0.267508043 -1.480016266
O 0.262637727 -0.149299173 -3.663721566
C 3.723581400 0.095889522 -0.782355100
C 3.833677997 -0.370934813 1.582811717
H -4.851291282 0.881957122 0.719828447
H -3.457437154 -2.180269494 -0.158713562
H -1.616300820 -0.049978777 -3.342489838
H 0.821977101 -0.014532107 2.271589073
H -0.746200180 2.799483442 1.098797129
H 4.974789911 -1.126984473 3.093969366

