15

C 4.522181267 -2.138415764 -2.525098081
C 2.260957757 -1.001167528 -1.498066118
C 0.244701014 -0.159967962 -0.670887243
C -0.704997744 2.334606545 0.780765293
C -3.473450655 1.918518672 0.680742788
C -3.853282016 -0.610179602 1.646546680
O -5.230454417 1.432896947 2.654507811
H 5.914299455 -2.508368449 -1.049615854
H 4.049599994 -3.943963358 -3.420226235
H 5.365293273 -0.930317103 -3.969248064
H 0.023555474 3.943737215 -0.275305185
H 0.062648654 2.327711048 2.689166655
H -4.388577195 2.393580891 -1.097801111
H -1.761902290 -1.413874038 -0.745740788
H -2.483207710 -1.293482327 3.047741450

