14

O -1.825400093 -1.633859569 2.708370486
C -2.406090141 -0.911266755 0.362126894
C -0.443161374 2.807163648 0.125425526
O 1.833034624 2.020007094 1.185246052
C 2.938138676 -0.120730747 0.310988978
N 2.040486169 -1.870719108 -1.025770666
C -0.655120464 -1.905818673 -1.649713880
H -0.153909406 -2.378677264 2.812342972
H -2.639950779 1.389089184 0.245674166
H -0.256226170 3.250251304 -1.877681539
H -1.120343351 4.401089506 1.232197753
H 4.882411443 -0.198934663 0.970119365
H -1.007330624 -0.934704537 -3.432276452
H -1.171029548 -3.884294066 -1.954613367

