10

C -2.078850728 -1.038473197 0.191811491
C -1.782739129 1.479246732 0.504250040
N 2.054911639 1.598385650 -0.082082711
C 2.849826804 -0.591141367 -0.557641172
O 2.430001753 -2.807818287 -0.841104097
H -1.947223555 -2.338254491 1.764901248
H -2.516049468 -1.853123396 -1.632010964
H -2.187290243 2.773800175 -1.025541007
H -1.630558842 2.285598652 2.376779260
H 4.796204405 0.482655932 -0.698914243

