10

C -2.333641821 -0.759563888 -0.338143492
C -0.086323407 -0.965043580 1.286019439
C 1.948283616 2.717487092 -0.248225996
N 2.606788693 0.611804048 -1.103308529
N 2.540990281 -1.491660381 -1.794296902
O 0.754083494 -1.587059141 3.176399844
H -2.962375453 -2.678164083 -0.757524742
H -1.918133073 0.279856496 -2.050790260
H -3.769119926 0.231157120 0.760182396
H 3.219449468 3.641188245 1.069688241

