12

C -3.122337009 1.928005683 -0.263948989
C -0.773206861 0.405920334 -0.123052257
O 0.130737981 -0.111627464 2.219551307
C 0.748506950 -0.646558852 -1.887708766
C 2.730875896 -1.904345537 -0.543542057
C 2.253967641 -1.513416439 1.929258005
H -4.693002682 0.961946035 0.662215498
H -3.625517427 2.246257540 -2.234033506
H -2.879083204 3.760855549 0.651386819
H 0.489307201 -0.544355603 -3.906177491
H 4.292238617 -2.951430745 -1.326426735
H 3.192137596 -2.081587353 3.643139784

