8

C -3.660262441 -0.730567213 0.481517145
C -2.199177640 -3.088624862 -0.158972246
C -0.016442299 -3.059116429 -1.316989726
O 1.918297461 -3.027744387 -2.344380719
H -2.916793180 -4.941248255 0.327917220
H -3.954024544 -0.571039746 2.517344573
H -5.510266542 -0.736780141 -0.431350756
H -2.660155409 0.958294272 -0.142064149

