16

C -3.746342490 0.667460773 2.305144222
C -2.469342884 0.085763349 -0.161937283
N -1.318977000 2.257629912 -1.525250395
C 0.254057275 0.331955187 -0.496279346
C 2.525992810 0.342374589 0.745371214
C 4.818360064 -1.864703373 -1.485164202
O 6.806577826 -2.553606320 -1.030356937
H -2.700078444 2.123294648 3.319455248
H -5.670104169 1.343242652 1.988543494
H -3.844599669 -1.020807300 3.488013471
H -3.424475152 -1.305868253 -1.333427906
H -1.556231548 2.104731396 -3.419386177
H 0.793401967 -1.557349283 -2.686808579
H 2.763865998 -0.839305512 2.400954999
H 3.717170145 2.003513678 0.640089053
H 2.167626036 -2.228722015 -3.231606359

