13

O -3.214601583 1.026607437 -1.861163330
C -1.944249391 -0.579553661 -0.185391279
C -0.700136537 0.451156919 2.248970506
N 1.743967788 -0.824630844 1.637748909
C 0.643748829 -1.603214145 -0.868804666
C 2.605671997 0.360447306 -0.689648954
H -3.266421766 -2.097139270 0.243905949
H -1.503821241 -0.289437200 3.991118450
H -0.543372152 2.506765055 2.386929225
H -2.051465006 2.276039038 -2.472684184
H 1.023182686 -3.436904202 -1.696066840
H 4.504076840 -0.177567057 -1.230661367
H 2.161755980 2.341077515 -1.013108821

