15

C -2.319214952 -2.504011270 1.027698546
C -0.505340205 -0.479790389 0.306889822
C -1.033632947 2.634621789 -2.022656981
N -1.209257120 1.979975079 0.452075930
C 2.114449615 -1.188915144 -0.367554698
O 2.626044964 -3.360597326 -0.936223027
N 3.979066552 0.593047005 -0.085444798
H -3.775307966 -2.736702470 -0.426923090
H -1.366528783 -4.307912421 1.269144657
H -3.301144539 -1.975606845 2.773161183
H -0.111614444 4.374673856 -2.605566210
H -2.015689051 1.513476192 -3.416972354
H -2.186442341 2.820802898 1.865864477
H 3.514309671 2.428045943 0.003998377
H 5.630584781 0.160119254 -0.915007204

