14

C -0.227751663 4.655699696 -0.409587328
C -0.277680968 -2.227107755 0.624117050
C 0.248230833 -4.071464635 -1.446101238
O -1.668022190 -3.302281549 2.533249358
C 0.479837330 0.123764721 0.651283205
C 1.234280212 2.470300219 0.662063223
H -2.026521093 4.029771570 -1.190808177
H 0.850072189 5.588621465 -1.904237010
H -0.596903823 6.073360707 1.046381380
H 1.298756137 -5.684066978 -0.701192384
H 1.337435164 -3.189276778 -2.949673508
H -1.526731865 -4.783008107 -2.222139192
H -1.951644078 -2.055170626 3.820509592
H 3.063811983 2.917461312 1.494784306

