14

C -1.643987670 1.945909326 -1.096169106
C -0.404755828 -0.319349259 0.203450296
C 0.298756592 -2.359460185 -1.703002078
O -2.139433703 -1.476918079 1.903814033
C 1.861224916 0.524742816 1.597730765
C 3.666816087 1.245858715 2.756081517
H -2.178242668 3.372961936 0.294014929
H -0.353814462 2.817993839 -2.446580679
H -3.337583618 1.311829885 -2.085119592
H 1.162336449 -3.959817820 -0.738646567
H 1.623118820 -1.625218627 -3.099319540
H -1.408629897 -3.004908880 -2.660820782
H -2.425667458 -0.344811580 3.292343102
H 5.279862478 1.871187892 3.782223721

