14

O 2.863528453 1.503837833 2.659516757
C 1.993457557 0.189588040 0.553776587
C 1.200323799 1.626435119 -1.717345534
C -0.813922427 0.592201220 0.027457154
C -2.655818998 -1.492149064 -0.842648097
C -1.634117215 -3.106513992 1.146998524
H 4.628348291 1.848809415 2.428275658
H 1.435693647 3.657559472 -1.670078495
H 1.407157857 0.745699251 -3.551414065
H -1.637018209 1.954526855 1.308280507
H -4.577933233 -0.752893458 -0.692584001
H -2.260221652 -2.104446747 -2.769583213
H -2.505016302 -2.468586351 2.937035152
H 2.778172774 -1.679992168 0.294534433

