14

O 2.257270184 1.393583727 2.993190953
C 1.016713605 0.426648021 0.907798503
C 1.289852484 1.544530666 -1.666460331
C -1.264203345 1.514078410 -0.408214367
C -2.408666839 -1.121093875 -0.646431277
C -0.089266259 -2.227835526 0.782996398
H 4.042450102 1.189398952 2.753031215
H 2.198540160 3.378638352 -1.690725926
H 1.654297524 0.368312025 -3.309468650
H -2.275057609 3.245332631 -0.014578576
H -4.163341513 -1.350095044 0.404258319
H -2.692940438 -1.787715326 -2.578755154
H -0.606005273 -2.911810521 2.655045835
H 1.040357216 -3.661972492 -0.181686925

