16

C 3.616602511 -0.423832103 0.562628480
C 0.808709901 -0.012475197 0.301345895
C -0.270615206 2.624519464 0.111973907
C -2.168107803 1.307983253 1.769003692
C -3.383351991 -0.578266739 -0.106309472
C -0.945152984 -1.672237545 -1.278415332
H 4.420470462 0.786108512 2.024640759
H 4.546498792 0.035985091 -1.223535021
H 4.046483231 -2.385930807 1.031596011
H 0.841957648 4.085289021 1.031886670
H -0.867578782 3.161807549 -1.781666237
H -0.056270148 -0.441100496 2.380474658
H -4.547666434 -1.995895852 0.826318880
H -4.581314728 0.453744729 -1.437506462
H -0.698795172 -1.421606136 -3.314256612
H -0.722602660 -3.677071725 -0.852346418

