12

C -3.310830689 -0.045197392 0.921767019
N -0.652692506 0.142260907 0.311191235
C 0.662154875 -2.145404444 -0.676199981
H -0.648216406 -3.684412952 -1.098964105
H 2.159634800 -2.814874751 0.575732918
C 1.434084980 -0.540376067 -2.906559406
H 2.745442113 -0.773661000 -4.446905576
C 0.090685557 1.370255058 -1.947854554
H -0.350511088 3.302789980 -2.461208747
H -3.547723903 -1.186518839 2.622950292
H -4.053272998 1.838775858 1.313776473
H -4.439749334 -0.888879113 -0.608171144

