15

C -3.818779963 -0.153839221 0.276177672
N -1.205239694 0.196112602 0.977288514
C 0.488401248 -1.917208582 0.275813332
C 2.077091185 -0.126568829 -1.255288770
O 4.567661646 1.326574379 0.857411318
C 0.317437083 1.826386341 -0.707297465
H -4.676880294 -1.602274668 1.470580297
H -4.851359501 1.605238382 0.582453578
H -4.066792609 -0.708473045 -1.721263088
H -0.434564953 -3.261838217 -1.003976719
H 1.351299008 -2.943743604 1.842125908
H 3.388235156 -0.505845083 -2.770710132
H 4.919237556 0.478122271 2.432287962
H 2.481480651 2.431573117 0.700707348
H -0.464759262 3.283982122 -1.910746550

