17

C 4.140622961 0.793282744 -1.207698682
C 1.904595094 -0.735863548 -0.321566077
C 1.147149646 -0.338382448 2.449840192
O -1.528842953 -0.355350715 2.421866349
C -2.314339629 -0.781787257 -0.098470907
C -4.678496766 0.680643370 -0.679357373
O -0.308083430 0.018950476 -1.627766601
H 4.494459570 0.468794904 -3.211172637
H 5.834375907 0.260301761 -0.157030288
H 3.786542048 2.803949149 -0.917331850
H 2.235410625 -2.757818232 -0.669973768
H 1.803630883 1.490088110 3.159128503
H 1.866559329 -1.833486779 3.681727803
H -2.606950510 -2.830135443 -0.367120987
H -4.323465037 2.692915833 -0.420849151
H -5.262852146 0.331594023 -2.623678838
H -6.190315593 0.092304069 0.589454295

