16

C 4.315369432 0.919173275 0.373995641
C 2.859186580 -1.483874501 -0.281923932
C 0.193528175 -1.374407448 0.447476545
C -1.853929912 -1.907663783 1.436255331
C -4.332686485 -1.511336134 1.948977580
C -2.774362973 2.200696300 -0.884608370
H 3.491841508 2.543326361 -0.593301759
H 4.250096836 1.286500167 2.401446857
H 6.290405428 0.746429045 -0.191953542
H 2.984696823 -1.849824860 -2.311111637
H 3.718819952 -3.112380099 0.662784135
H -4.907386404 -0.679874516 3.729323881
H -5.781661033 -2.490252212 0.884037843
H -3.119189784 0.478112142 -1.873550957
H -3.072556729 3.961686665 -1.907747460
H -2.216332291 2.331044695 1.048352988

