16

C -2.464559118 -0.253707297 2.613478701
C -2.387646735 -0.309081488 -0.023174392
N -1.156575278 3.123885488 -2.142455130
C -0.168050472 0.740833074 -1.768510719
C 2.374511268 0.753368138 -0.417106360
C 3.364518867 -1.741737873 0.478132192
O 2.112252525 -3.626351854 0.769833019
H -0.743112027 -0.418304843 3.706632919
H -4.223932633 -0.086553009 3.648560558
H -1.795966947 -2.342102692 0.684610736
H -4.177318098 -0.367023931 -1.012657403
H -2.168644031 3.140342679 -3.775355342
H -0.045669994 -0.541492234 -3.398846857
H 2.303082285 2.048061250 1.200222906
H 3.773574124 1.590540697 -1.688107654
H 5.413735117 -1.796841928 0.912466089

