11

C 0.959178456 -2.680954151 2.488665314
C -1.187983887 -1.789481823 0.776606006
C -0.440583051 0.468044154 -0.772429881
N -1.478232743 2.615621500 -0.835022108
H -3.000580575 2.670047369 0.350113868
H 1.222675687 0.202579623 -1.976072398
H -2.868730340 -1.335346639 1.889926587
H -1.708968718 -3.316072090 -0.520287012
H 2.643135515 -3.144424865 1.389350231
H 0.410996932 -4.366892588 3.539720402
H 1.475268216 -1.219315357 3.849044418

