12

N 3.334409728 -0.122464306 -0.457189208
C 1.649053383 1.527666126 0.508170485
O 1.963672865 3.783985211 0.714838399
C -0.833742158 0.281828425 1.346974993
C -2.543178225 -0.559189746 -0.942784949
N -1.069720518 -2.256023456 1.491988607
H 5.057807224 0.487665237 -0.959953130
H 2.955311279 -1.980825456 -0.295427008
H -1.871575154 1.544585940 2.623953245
H -1.570820290 -0.101207457 -2.690682555
H -4.421808105 0.214668541 -0.679624599
H -2.740659235 -2.678243414 -0.913260813

