12

C -3.347738741 0.665932740 0.373300146
C -0.452720799 -0.461571029 -0.026629340
C -1.760830041 -2.543546004 -0.017662193
O 4.066174271 -2.404898480 -0.674290715
C 3.751019846 -0.214679596 -0.186678920
O 5.690358651 1.383296153 0.114583052
N 1.423768549 1.028979383 0.130596365
H -3.293386816 1.453996174 2.264841182
H -3.396986610 2.088025915 -1.112098401
H -5.020994660 -0.527822919 0.222965252
H -2.627940303 -3.508896191 -1.592200387
H 4.995375661 3.021088526 0.495699937

