12

N 4.113639486 -0.722572386 -0.234875553
C 1.605671224 -0.248879501 -0.194464478
N 0.000592448 -2.187415512 0.186523603
C -2.551704575 -1.840332709 0.587432062
C -3.421638239 0.638968446 0.393671110
C -1.688336178 2.474615446 -0.264661813
N 0.793825795 2.085708279 -0.541499887
H 5.255435935 0.671052858 -0.824734911
H 4.706352822 -2.517473509 -0.362711727
H -1.095212715 -3.865873299 1.126826681
H -5.387560483 1.105510343 0.697339365
H -2.290506309 4.413802582 -0.581847656

