11

O 4.244492306 -2.980521926 -0.151875928
C 2.615093737 -1.474894485 -0.019233255
O -0.016067982 -2.717853207 0.431864705
C -2.075689197 -1.528145361 0.181502620
C -2.121253442 1.049130421 -0.533918986
C 0.216361774 2.487297531 -0.579536937
C 2.401066550 1.207010746 -0.057761728
H -3.755571799 -2.595795306 0.725449135
H -3.845602811 1.794431412 -1.361056363
H -1.871925906 2.560576385 1.175891908
H 4.190084256 2.176599211 0.189744414

