15

C -4.581443475 -1.064552532 -0.778895995
N -2.287600609 -0.279323914 -0.115893710
C -1.256888612 -0.955555586 2.318212226
N 0.918554182 -0.130281555 2.754927347
C 1.702986205 1.313279438 0.523964816
C 4.197007759 0.301937927 -0.510249902
C -0.504545934 1.099617535 -1.221522161
H -5.315405032 -0.554846626 -2.606819798
H -5.623660030 -2.206340099 0.541210192
H 2.009862685 3.261837518 1.170363930
H -2.407616511 -2.105602314 3.560311557
H 5.684924498 0.462851999 0.906293563
H 3.996156725 -1.677523619 -1.051498890
H 4.755206986 1.377927819 -2.178189246
H -0.739361412 1.869475101 -3.089864976

