12

C 2.097487868 -0.687145955 -0.820049751
C 0.649282911 1.739779664 -0.306330425
C -2.122888301 0.996301993 -0.613437717
O -2.215754280 -1.567156243 -1.391300409
C -0.193751598 -2.004414283 0.397499752
C -0.832888021 0.506967448 1.819696276
H 3.771546126 -0.823024350 0.372853660
H 2.530554004 -1.215261933 -2.766978358
H 1.287774560 3.675307912 -0.442215529
H -3.625340586 2.271852935 -1.142970668
H -0.143129784 -3.918061317 1.136104442
H -1.202892881 1.024854130 3.757128744

