12

C 2.115855420 -0.713511679 -0.764848923
C 0.681478307 1.724816869 -0.041916355
C -1.854674237 0.552058940 -0.532423230
O -1.906805980 -1.446264907 -2.333804658
C -0.392634104 -2.079359121 -0.285520704
C -0.051348243 0.889225406 2.613168956
H 3.643691282 -1.143120939 0.531385355
H 2.671963136 -0.927326631 -2.738854924
H 1.193110676 3.644855467 -0.562664366
H -3.695618480 1.212832312 0.039912565
H -0.827775858 -3.789992915 0.739153883
H -1.596250675 2.102577845 3.334167390

