12

O 4.968628478 -0.762794470 -1.330851321
C 2.763248511 -0.321658598 -1.626128284
C 1.248810581 0.817102969 0.442405106
C -1.101217263 2.116611878 0.129823089
N -2.459944482 0.245114354 1.734622166
C -2.233648475 -2.131835908 1.062153998
O -0.468735208 -3.161201060 -0.089262347
H 1.795884593 -0.561146141 -3.454770712
H 2.155407879 0.869555983 2.278824948
H -1.803699121 2.195415271 -1.807644491
H -1.252990655 3.942284601 1.056821247
H -3.846853224 -3.299321860 1.657228849

