12

N 2.871223569 -2.179548356 -0.566120959
C 1.332825064 1.832373334 1.402240279
C -0.865281536 2.872863416 0.616948185
C -2.617119315 1.050893743 -0.510304950
C -1.601344564 -1.248006804 -0.453590187
N 0.847810621 -0.978642484 0.789843726
H 2.746231319 -1.470745138 -2.347380772
H 4.450613672 -1.375715535 0.186199458
H -1.272222133 4.871002713 0.745608129
H -4.457154222 1.478542979 -1.292671880
H -2.234953822 -3.081958664 -1.072718247
H 0.776492414 -1.839104462 2.513491591

