11

O -1.898714834 1.144698293 -0.370483622
C -2.305785462 1.319296420 2.121283262
N -0.567355838 1.353038708 3.739814979
C 0.670879986 0.915774886 -1.158100703
C 1.587985939 -1.683889747 -1.004514271
C 2.357323434 -3.807457480 -0.923930094
H -4.334163495 1.437365016 2.472475218
H -1.284050779 1.513574665 5.507105030
H 0.692621663 1.552830060 -3.115664575
H 1.866817296 2.146985143 -0.015808258
H 3.046757205 -5.694936116 -0.835169752

