11

O -2.707494617 0.781892382 -0.608567741
C -2.785223645 1.104104084 1.733937726
N -0.713460996 1.488332120 2.947622569
C 1.283595809 1.037943752 -0.640995309
C 1.815537556 -1.579911611 -0.746031125
C 2.328812626 -3.783363566 -0.867354660
H -4.623408906 1.040988630 2.689742473
H -0.765337833 1.692931520 4.849712983
H 0.697460912 1.903440717 -2.392778286
H 2.601370678 2.153139528 0.438193454
H 2.779013853 -5.740188688 -0.991235052

