17

C -4.834486836 0.509082354 0.703601822
C -3.319028850 0.688968766 -1.748702497
C -2.157591949 -0.162844144 0.610479445
C 3.191475833 -0.245794712 -1.692330625
C 2.396648710 -1.398869802 0.763091043
C 4.270060942 0.747417428 0.731003380
C -0.164656221 -1.006264932 1.835324953
H -6.217360673 -0.993963684 0.864343514
H -5.381877321 2.264587184 1.606780285
H -3.694708218 -0.695735724 -3.210953297
H -2.879403229 2.563901680 -2.449832142
H 4.409670337 -1.346276267 -2.911163308
H 1.835129442 0.919817539 -2.680098634
H 3.203832355 -3.234242017 1.194280417
H 3.603287860 2.565803651 1.389355314
H 6.224323180 0.336722078 1.172899810
H -0.376436921 -1.449517561 3.831410722

