17

C -4.379960365 -0.309590165 0.234596686
C -2.851567715 1.355996394 -1.480688026
C -1.574077630 -0.479960162 0.237777473
C 1.792276293 -1.472377124 -1.769979471
C 2.646323974 -1.006485482 0.917486449
C 4.021829731 1.365371496 0.892300689
C 0.194574630 -0.616613779 2.154273174
H -5.402369416 -1.856773723 -0.632918336
H -5.299824203 0.516418988 1.868321820
H -2.894781121 0.976751416 -3.491338916
H -2.665616000 3.336182745 -0.989931878
H 2.372776272 -3.191699331 -2.750440060
H 1.655580762 0.170118966 -2.980024739
H 3.739371328 -2.572653531 1.697246861
H 3.058474036 3.016128713 0.161981427
H 5.844064457 1.631053383 1.786118073
H -0.217649717 -0.857526232 4.148151630

