11

N 4.143287607 1.579099539 0.375489016
C 4.153165678 -0.791644068 -0.087728230
C 1.469766203 -0.096895896 0.239144463
C -0.775480031 -0.127489579 -1.541714823
C -2.232897460 -0.677690125 0.911128390
O 0.091655818 -0.791257279 2.364892751
H 1.993038812 2.371614318 0.508147808
H -1.237358009 1.617563516 -2.521516861
H -0.689597591 -1.691126321 -2.876912117
H -3.454130927 0.843764359 1.579734317
H -3.218333055 -2.481710574 0.983754231

