13

C -1.348407405 2.402167712 -1.339049954
C 0.235768675 -0.964953629 2.243806055
C -1.373595867 -1.815014990 0.109008492
C -0.035727011 0.112005522 -1.530162492
C 2.295637595 0.256399893 0.861202638
H -0.585435018 4.159688767 -2.069858598
H -3.190574056 2.466653066 -0.459695741
H 0.610307650 -2.211593991 3.844468069
H -3.435677732 -1.640160634 0.155445640
H -0.904354591 -3.778603101 -0.384139558
H 0.908397773 -0.436404432 -3.282048176
H 4.098958865 -0.801197087 0.907280095
H 2.720817753 2.247395949 0.920796569

