13

C 4.018993857 0.118282040 -0.045870267
N 1.990654677 1.334636007 -1.455580407
C -0.457561692 1.157922332 -1.010160545
O -0.822673806 -0.327491711 0.995539508
C -3.449874791 -0.652226726 1.552415473
O -4.693657585 -1.929495279 -0.345866425
H 5.819815662 0.611132742 -0.908177091
H 4.020041200 0.742462094 1.917795058
H 3.793463378 -1.929123853 -0.073622350
H 2.467672196 2.427768002 -2.929616559
H -4.250139922 1.225300347 1.886486964
H -3.524533996 -1.802074429 3.255390736
H -4.603967839 -0.870478888 -1.826502257

