13

C 3.997054590 -0.006774611 -0.223008621
N 1.618224750 0.868645740 -1.279818057
C -0.517800586 1.257022159 0.030976428
O -0.431185367 0.806244224 2.412267712
C -3.551097291 -0.452799015 1.245555130
O -4.161692255 -1.870453545 -0.787885724
H 5.346772993 1.538058165 0.006187719
H 3.617354056 -0.815968075 1.627901546
H 4.827358090 -1.448850317 -1.439373681
H 1.579118644 1.350517833 -3.114256351
H -4.570795322 1.292010154 1.527599665
H -3.472282294 -1.717690882 2.855845601
H -4.211346377 -0.768242758 -2.237656111

