15

C 3.475761393 0.453593985 0.747252833
C 0.772068036 -0.269782782 0.334603374
C -1.342060363 0.975914437 1.675550065
C -3.636423641 0.019617455 0.349243800
O -3.328338756 0.312102102 -2.210925444
C -1.136469084 -0.713557788 -2.752188548
C -0.123548423 -2.458839276 -0.913221261
H 3.854740979 0.640892811 2.770249719
H 4.756249226 -0.957111492 -0.034784397
H 3.914750574 2.274428972 -0.118520864
H -1.253885176 3.054265106 1.768226391
H -1.288777192 0.249302705 3.611433562
H -5.499157012 0.626895685 0.945081382
H -0.402098117 -0.338871566 -4.624420609
H 1.237187555 -3.868850317 -1.547576243

