14

C -3.108584130 -2.396932207 -0.414769373
C -1.358989702 -0.265587873 0.196674494
N -1.892120880 1.577650025 1.658894453
O -4.306189955 1.388216244 2.623750686
C 1.034164300 -0.053117046 -1.252838003
C 5.206220928 1.263160499 -0.952546311
O 2.804797692 0.779054902 0.200370099
H -4.870649523 -1.679313001 -1.213835038
H -2.223137157 -3.671274953 -1.765085402
H -3.597524177 -3.433210770 1.299575975
H -4.490850042 2.918848994 3.579223464
H 5.120793496 0.739675976 -2.940553803
H 6.615271081 0.152908361 0.055919944
H 5.607686856 3.269154461 -0.727343680

