16

C -2.913977980 -2.595713424 -0.445856898
C -1.273738657 -0.467093225 -1.405200573
C -1.094763603 3.591432323 0.050634380
C 1.666191385 2.753709098 -0.045584956
C 1.225218578 -0.031965152 -0.132791433
N 2.415140701 -1.835202159 0.884540699
O 4.632670227 -1.027704101 2.032893080
H -4.725596829 -2.634004018 -1.426234755
H -3.251865773 -2.409613535 1.578353532
H -1.966663262 -4.400710711 -0.754970134
H -1.020843753 -0.531253962 -3.459102154
H -2.328395431 1.494305827 -1.308894971
H -1.794731614 2.957650344 1.917255163
H 2.739733382 3.305303770 1.627612947
H 2.640339136 3.454632668 -1.725310371
H 5.287244164 -2.549457936 2.767852110

