11

N 4.742519327 -0.772627055 -1.140305738
C 2.792493988 0.433365658 -0.973306483
C 0.618087218 1.610373335 -0.956639004
C -1.513374241 0.832968675 0.697925274
C -2.756425201 -1.630794623 0.479685717
O -1.029350639 -1.109420168 2.464486061
H 6.151320357 -0.257932574 0.058817140
H 0.391251372 3.238293306 -2.174256990
H -2.624324955 2.395413377 1.441207585
H -2.081013387 -2.948976010 -0.940953295
H -4.714208244 -1.849991874 1.058803381

