10

C 3.335243475 0.763259512 0.859073880
C 1.093174627 0.758982193 2.675364435
C -0.030117416 -1.835548980 2.955333823
O -2.226068689 -2.338631076 2.700789018
H 1.352805063 -3.347847911 3.429362551
H -0.390458878 2.058945940 2.078770301
H 1.727958425 1.343540435 4.558921341
H 2.743864626 0.266686258 -1.053287894
H 4.213800338 2.624870556 0.787362931
H 4.780168113 -0.588813886 1.446573575

