29

C    -2.53727   2.32649   1.19594
O    -2.06559   1.56788   0.08299
C    -1.78683   0.28439   0.30546
O    -2.10957  -0.34411   1.28797
N    -1.07048  -0.17860  -0.83134
C     0.63590   0.69683  -0.32145
C     0.60969   2.11111  -0.74432
C     0.34090   2.34189  -2.21424
O     0.69426   3.04713   0.04497
C     1.11614  -0.39352   0.28090
O     2.23615  -0.71179   0.97163
C     3.13040   0.26481   1.54176
N     0.27593  -1.54980   0.22166
C     0.75160  -2.82256   0.36286
N     1.21481  -3.88648   0.51039
N    -0.72099  -1.46624  -0.79663
C    -0.39126  -2.07875  -2.08379
H    -1.79698   2.29499   2.00609
H    -2.64615   3.34609   0.81729
H    -3.49745   1.93344   1.54210
H     0.49281   3.40307  -2.48799
H     0.95598   1.69060  -2.84338
H    -0.72140   2.08553  -2.42057
H     3.75447   0.73580   0.78848
H     3.83046  -0.33594   2.23707
H     2.60632   0.99163   2.15571
H    -1.19353  -1.80780  -2.79485
H     0.58022  -1.75038  -2.44962
H    -0.39893  -3.18300  -1.95875
29

C    -2.53650   2.32580   1.19490
O    -2.06451   1.56605   0.08198
C    -1.78782   0.28245   0.30534
O    -2.10876  -0.34342   1.29010
N    -1.08578  -0.18855  -0.83486
C     0.64964   0.70691  -0.31850
C     0.60887   2.11540  -0.74610
C     0.33932   2.34295  -2.21555
O     0.69191   3.05201   0.04300
C     1.13546  -0.37139   0.28298
O     2.23945  -0.71177   0.97436
C     3.13614   0.26181   1.54720
N     0.25579  -1.56526   0.22411
C     0.74492  -2.82888   0.35846
N     1.21754  -3.88735   0.50976
N    -0.71756  -1.46425  -0.79813
C    -0.39316  -2.08093  -2.08508
H    -1.79682   2.29477   2.00584
H    -2.64577   3.34584   0.81681
H    -3.49728   1.93334   1.54173
H     0.49156   3.40333  -2.48900
H     0.95598   1.69099  -2.84337
H    -0.72169   2.08496  -2.42077
H     3.75612   0.73502   0.79012
H     3.83184  -0.33741   2.23835
H     2.60815   0.99067   2.15752
H    -1.19354  -1.80750  -2.79535
H     0.58013  -1.75190  -2.44932
H    -0.40034  -3.18350  -1.95834
29

C    -2.53573   2.32511   1.19386
O    -2.06342   1.56423   0.08098
C    -1.78881   0.28051   0.30521
O    -2.10796  -0.34273   1.29223
N    -1.10108  -0.19850  -0.83838
C     0.66339   0.71700  -0.31556
C     0.60805   2.11970  -0.74788
C     0.33774   2.34401  -2.21685
O     0.68955   3.05690   0.04103
C     1.15477  -0.34926   0.28507
O     2.24275  -0.71175   0.97709
C     3.14189   0.25880   1.55264
N     0.23565  -1.58071   0.22655
C     0.73824  -2.83519   0.35405
N     1.22027  -3.88821   0.50912
N    -0.71413  -1.46226  -0.79964
C    -0.39505  -2.08310  -2.08637
H    -1.79667   2.29455   2.00559
H    -2.64539   3.34559   0.81633
H    -3.49712   1.93323   1.54136
H     0.49032   3.40359  -2.49000
H     0.95598   1.69137  -2.84336
H    -0.72197   2.08440  -2.42098
H     3.75778   0.73423   0.79177
H     3.83323  -0.33889   2.23963
H     2.60998   0.98971   2.15932
H    -1.19354  -1.80720  -2.79585
H     0.58004  -1.75342  -2.44901
H    -0.40174  -3.18401  -1.95793
29

C    -2.53496   2.32442   1.19282
O    -2.06234   1.56240   0.07997
C    -1.78980   0.27857   0.30509
O    -2.10715  -0.34205   1.29436
N    -1.11638  -0.20844  -0.84190
C     0.67714   0.72708  -0.31261
C     0.60723   2.12399  -0.74965
C     0.33616   2.34507  -2.21816
O     0.68720   3.06179   0.03906
C     1.17408  -0.32714   0.28715
O     2.24605  -0.71172   0.97982
C     3.14764   0.25580   1.55808
N     0.21551  -1.59617   0.22900
C     0.73156  -2.84150   0.34965
N     1.22301  -3.88907   0.50849
N    -0.71070  -1.46028  -0.80115
C    -0.39695  -2.08528  -2.08766
H    -1.79651   2.29434   2.00534
H    -2.64501   3.34534   0.81585
H    -3.49696   1.93313   1.54099
H     0.48907   3.40385  -2.49100
H     0.95598   1.69176  -2.84334
H    -0.72226   2.08383  -2.42118
H     3.75943   0.73345   0.79341
H     3.83461  -0.34037   2.24091
H     2.61181   0.98875   2.16113
H    -1.19355  -1.80691  -2.79636
H     0.57995  -1.75494  -2.44871
H    -0.40315  -3.18452  -1.95752
29

C    -2.53420   2.32372   1.19178
O    -2.06125   1.56057   0.07896
C    -1.79078   0.27663   0.30496
O    -2.10635  -0.34136   1.29649
N    -1.13167  -0.21839  -0.84542
C     0.69089   0.73716  -0.30967
C     0.60641   2.12829  -0.75143
C     0.33458   2.34613  -2.21946
O     0.68485   3.06667   0.03709
C     1.19340  -0.30501   0.28924
O     2.24935  -0.71170   0.98254
C     3.15339   0.25280   1.56352
N     0.19537  -1.61162   0.23145
C     0.72488  -2.84781   0.34525
N     1.22574  -3.88994   0.50786
N    -0.70727  -1.45829  -0.80266
C    -0.39885  -2.08746  -2.08895
H    -1.79636   2.29412   2.00510
H    -2.64463   3.34508   0.81537
H    -3.49680   1.93302   1.54062
H     0.48783   3.40411  -2.49201
H     0.95598   1.69214  -2.84333
H    -0.72254   2.08327  -2.42138
H     3.76108   0.73267   0.79506
H     3.83600  -0.34184   2.24219
H     2.61364   0.98779   2.16293
H    -1.19356  -1.80661  -2.79686
H     0.57986  -1.75645  -2.44841
H    -0.40455  -3.18502  -1.95712
29

C    -2.53343   2.32303   1.19074
O    -2.06017   1.55875   0.07795
C    -1.79177   0.27469   0.30483
O    -2.10555  -0.34067   1.29862
N    -1.14697  -0.22834  -0.84894
C     0.70464   0.74725  -0.30672
C     0.60559   2.13258  -0.75321
C     0.33300   2.34719  -2.22077
O     0.68249   3.07156   0.03512
C     1.21271  -0.28289   0.29133
O     2.25265  -0.71168   0.98527
C     3.15914   0.24979   1.56896
N     0.17524  -1.62708   0.23390
C     0.71820  -2.85413   0.34085
N     1.22847  -3.89080   0.50723
N    -0.70384  -1.45630  -0.80417
C    -0.40075  -2.08963  -2.09024
H    -1.79621   2.29390   2.00485
H    -2.64425   3.34483   0.81489
H    -3.49664   1.93292   1.54025
H     0.48659   3.40437  -2.49301
H     0.95597   1.69253  -2.84332
H    -0.72283   2.08270  -2.42159
H     3.76273   0.73188   0.79670
H     3.83739  -0.34332   2.24347
H     2.61546   0.98682   2.16474
H    -1.19357  -1.80631  -2.79736
H     0.57978  -1.75797  -2.44810
H    -0.40595  -3.18553  -1.95671
29

C    -2.53266   2.32234   1.18970
O    -2.05908   1.55692   0.07694
C    -1.79276   0.27275   0.30471
O    -2.10474  -0.33998   1.30075
N    -1.16227  -0.23829  -0.85246
C     0.71839   0.75733  -0.30378
C     0.60477   2.13688  -0.75498
C     0.33143   2.34825  -2.22207
O     0.68014   3.07645   0.03315
C     1.23202  -0.26076   0.29341
O     2.25595  -0.71165   0.98800
C     3.16489   0.24679   1.57440
N     0.15510  -1.64253   0.23635
C     0.71152  -2.86044   0.33644
N     1.23121  -3.89166   0.50659
N    -0.70041  -1.45431  -0.80568
C    -0.40265  -2.09181  -2.09153
H    -1.79605   2.29368   2.00460
H    -2.64387   3.34458   0.81441
H    -3.49648   1.93281   1.53988
H     0.48534   3.40463  -2.49401
H     0.95597   1.69292  -2.84330
H    -0.72311   2.08214  -2.42179
H     3.76438   0.73110   0.79835
H     3.83877  -0.34480   2.24475
H     2.61729   0.98586   2.16654
H    -1.19358  -1.80601  -2.79787
H     0.57969  -1.75949  -2.44780
H    -0.40736  -3.18604  -1.95630
29

C    -2.53189   2.32165   1.18866
O    -2.05800   1.55510   0.07594
C    -1.79375   0.27082   0.30458
O    -2.10394  -0.33929   1.30288
N    -1.17757  -0.24824  -0.85598
C     0.73213   0.76741  -0.30083
C     0.60395   2.14117  -0.75676
C     0.32985   2.34931  -2.22338
O     0.67778   3.08134   0.03118
C     1.25134  -0.23863   0.29550
O     2.25925  -0.71163   0.99073
C     3.17064   0.24378   1.57983
N     0.13496  -1.65799   0.23880
C     0.70484  -2.86675   0.33204
N     1.23394  -3.89252   0.50596
N    -0.69698  -1.45233  -0.80719
C    -0.40455  -2.09398  -2.09282
H    -1.79590   2.29346   2.00436
H    -2.64349   3.34433   0.81393
H    -3.49632   1.93271   1.53951
H     0.48410   3.40489  -2.49501
H     0.95597   1.69330  -2.84329
H    -0.72340   2.08157  -2.42200
H     3.76604   0.73032   0.79999
H     3.84016  -0.34628   2.24603
H     2.61912   0.98490   2.16835
H    -1.19359  -1.80571  -2.79837
H     0.57960  -1.76101  -2.44749
H    -0.40876  -3.18654  -1.95589
29

C    -2.53113   2.32095   1.18762
O    -2.05692   1.55327   0.07493
C    -1.79474   0.26888   0.30446
O    -2.10314  -0.33860   1.30501
N    -1.19287  -0.25818  -0.85950
C     0.74588   0.77750  -0.29789
C     0.60313   2.14547  -0.75854
C     0.32827   2.35037  -2.22468
O     0.67543   3.08622   0.02921
C     1.27065  -0.21651   0.29758
O     2.26254  -0.71161   0.99345
C     3.17639   0.24078   1.58527
N     0.11482  -1.67344   0.24125
C     0.69816  -2.87307   0.32764
N     1.23667  -3.89339   0.50533
N    -0.69355  -1.45034  -0.80870
C    -0.40645  -2.09616  -2.09411
H    -1.79574   2.29325   2.00411
H    -2.64311   3.34408   0.81345
H    -3.49616   1.93260   1.53914
H     0.48285   3.40515  -2.49602
H     0.95597   1.69369  -2.84328
H    -0.72368   2.08100  -2.42220
H     3.76769   0.72953   0.80164
H     3.84154  -0.34775   2.24731
H     2.62095   0.98394   2.17015
H    -1.19360  -1.80541  -2.79887
H     0.57951  -1.76253  -2.44719
H    -0.41017  -3.18705  -1.95548
29

C    -2.53036   2.32026   1.18658
O    -2.05583   1.55144   0.07392
C    -1.79572   0.26694   0.30433
O    -2.10233  -0.33791   1.30714
N    -1.20817  -0.26813  -0.86302
C     0.75963   0.78758  -0.29494
C     0.60231   2.14976  -0.76031
C     0.32669   2.35143  -2.22599
O     0.67307   3.09111   0.02724
C     1.28996  -0.19438   0.29967
O     2.26584  -0.71158   0.99618
C     3.18214   0.23778   1.59071
N     0.09468  -1.68890   0.24369
C     0.69148  -2.87938   0.32324
N     1.23941  -3.89425   0.50469
N    -0.69012  -1.44835  -0.81021
C    -0.40835  -2.09834  -2.09540
H    -1.79559   2.29303   2.00386
H    -2.64273   3.34382   0.81298
H    -3.49600   1.93250   1.53877
H     0.48161   3.40541  -2.49702
H     0.95597   1.69408  -2.84326
H    -0.72397   2.08044  -2.42241
H     3.76934   0.72875   0.80328
H     3.84293  -0.34923   2.24859
H     2.62278   0.98298   2.17196
H    -1.19361  -1.80511  -2.79938
H     0.57942  -1.76405  -2.44688
H    -0.41157  -3.18755  -1.95507
29

C    -2.52959   2.31957   1.18554
O    -2.05475   1.54962   0.07291
C    -1.79671   0.26500   0.30421
O    -2.10153  -0.33722   1.30927
N    -1.22347  -0.27808  -0.86654
C     0.77338   0.79766  -0.29200
C     0.60149   2.15406  -0.76209
C     0.32511   2.35249  -2.22729
O     0.67072   3.09600   0.02527
C     1.30928  -0.17226   0.30175
O     2.26914  -0.71156   0.99891
C     3.18789   0.23477   1.59615
N     0.07454  -1.70435   0.24614
C     0.68480  -2.88569   0.31883
N     1.24214  -3.89511   0.50406
N    -0.68669  -1.44636  -0.81171
C    -0.41025  -2.10051  -2.09669
H    -1.79543   2.29281   2.00362
H    -2.64235   3.34357   0.81250
H    -3.49584   1.93239   1.53840
H     0.48036   3.40567  -2.49802
H     0.95597   1.69446  -2.84325
H    -0.72425   2.07987  -2.42261
H     3.77099   0.72797   0.80493
H     3.84431  -0.35071   2.24987
H     2.62460   0.98201   2.17376
H    -1.19362  -1.80481  -2.79988
H     0.57933  -1.76557  -2.44658
H    -0.41297  -3.18806  -1.95466
29

C    -2.52882   2.31888   1.18450
O    -2.05366   1.54779   0.07190
C    -1.79770   0.26306   0.30408
O    -2.10072  -0.33653   1.31140
N    -1.23877  -0.28803  -0.87005
C     0.78713   0.80775  -0.28905
C     0.60067   2.15835  -0.76387
C     0.32353   2.35355  -2.22860
O     0.66836   3.10088   0.02330
C     1.32859  -0.15013   0.30384
O     2.27244  -0.71154   1.00164
C     3.19364   0.23177   1.60159
N     0.05440  -1.71981   0.24859
C     0.67812  -2.89201   0.31443
N     1.24487  -3.89598   0.50343
N    -0.68326  -1.44438  -0.81322
C    -0.41215  -2.10269  -2.09798
H    -1.79528   2.29259   2.00337
H    -2.64197   3.34332   0.81202
H    -3.49567   1.93229   1.53803
H     0.47912   3.40593  -2.49903
H     0.95596   1.69485  -2.84324
H    -0.72454   2.07931  -2.42281
H     3.77265   0.72718   0.80657
H     3.84570  -0.35218   2.25115
H     2.62643   0.98105   2.17557
H    -1.19363  -1.80451  -2.80038
H     0.57924  -1.76709  -2.44628
H    -0.41438  -3.18857  -1.95425
29

C    -2.52805   2.31818   1.18346
O    -2.05258   1.54596   0.07090
C    -1.79869   0.26112   0.30396
O    -2.09992  -0.33584   1.31353
N    -1.25407  -0.29798  -0.87357
C     0.80087   0.81783  -0.28611
C     0.59985   2.16264  -0.76564
C     0.32196   2.35461  -2.22990
O     0.66601   3.10577   0.02133
C     1.34790  -0.12800   0.30593
O     2.27574  -0.71151   1.00437
C     3.19939   0.22876   1.60703
N     0.03426  -1.73526   0.25104
C     0.67144  -2.89832   0.31003
N     1.24761  -3.89684   0.50280
N    -0.67983  -1.44239  -0.81473
C    -0.41404  -2.10487  -2.09927
H    -1.79513   2.29238   2.00312
H    -2.64159   3.34307   0.81154
H    -3.49551   1.93218   1.53766
H     0.47787   3.40619  -2.50003
H     0.95596   1.69524  -2.84322
H    -0.72483   2.07874  -2.42302
H     3.77430   0.72640   0.80822
H     3.84708  -0.35366   2.25243
H     2.62826   0.98009   2.17737
H    -1.19363  -1.80421  -2.80089
H     0.57915  -1.76860  -2.44597
H    -0.41578  -3.18907  -1.95385
29

C    -2.52729   2.31749   1.18242
O    -2.05149   1.54414   0.06989
C    -1.79968   0.25919   0.30383
O    -2.09912  -0.33515   1.31566
N    -1.26936  -0.30792  -0.87709
C     0.81462   0.82791  -0.28316
C     0.59903   2.16694  -0.76742
C     0.32038   2.35568  -2.23120
O     0.66366   3.11066   0.01936
C     1.36721  -0.10588   0.30801
O     2.27904  -0.71149   1.00709
C     3.20513   0.22576   1.61247
N     0.01412  -1.75072   0.25349
C     0.66476  -2.90463   0.30562
N     1.25034  -3.89770   0.50216
N    -0.67640  -1.44040  -0.81624
C    -0.41594  -2.10704  -2.10056
H    -1.79497   2.29216   2.00287
H    -2.64121   3.34281   0.81106
H    -3.49535   1.93208   1.53729
H     0.47663   3.40645  -2.50103
H     0.95596   1.69562  -2.84321
H    -0.72511   2.07818  -2.42322
H     3.77595   0.72562   0.80986
H     3.84847  -0.35514   2.25371
H     2.63009   0.97913   2.17918
H    -1.19364  -1.80392  -2.80139
H     0.57906  -1.77012  -2.44567
H    -0.41719  -3.18958  -1.95344
29

C    -2.52652   2.31680   1.18138
O    -2.05041   1.54231   0.06888
C    -1.80067   0.25725   0.30371
O    -2.09831  -0.33446   1.31779
N    -1.28466  -0.31787  -0.88061
C     0.82837   0.83800  -0.28022
C     0.59821   2.17123  -0.76920
C     0.31880   2.35674  -2.23251
O     0.66130   3.11555   0.01739
C     1.38653  -0.08375   0.31010
O     2.28234  -0.71147   1.00982
C     3.21088   0.22276   1.61791
N    -0.00602  -1.76617   0.25594
C     0.65808  -2.91095   0.30122
N     1.25307  -3.89856   0.50153
N    -0.67297  -1.43841  -0.81775
C    -0.41784  -2.10922  -2.10185
H    -1.79482   2.29194   2.00263
H    -2.64083   3.34256   0.81058
H    -3.49519   1.93197   1.53692
H     0.47539   3.40671  -2.50204
H     0.95596   1.69601  -2.84320
H    -0.72540   2.07761  -2.42343
H     3.77760   0.72483   0.81151
H     3.84985  -0.35662   2.25499
H     2.63192   0.97817   2.18099
H    -1.19365  -1.80362  -2.80189
H     0.57898  -1.77164  -2.44536
H    -0.41859  -3.19008  -1.95303
29

C    -2.52575   2.31611   1.18034
O    -2.04933   1.54048   0.06787
C    -1.80165   0.25531   0.30358
O    -2.09751  -0.33378   1.31992
N    -1.29996  -0.32782  -0.88413
C     0.84212   0.84808  -0.27727
C     0.59739   2.17553  -0.77097
C     0.31722   2.35780  -2.23381
O     0.65895   3.12043   0.01542
C     1.40584  -0.06163   0.31218
O     2.28564  -0.71144   1.01255
C     3.21663   0.21975   1.62335
N    -0.02616  -1.78163   0.25839
C     0.65140  -2.91726   0.29682
N     1.25581  -3.89943   0.50090
N    -0.66954  -1.43643  -0.81926
C    -0.41974  -2.11139  -2.10314
H    -1.79466   2.29172   2.00238
H    -2.64045   3.34231   0.81010
H    -3.49503   1.93187   1.53655
H     0.47414   3.40697  -2.50304
H     0.95596   1.69640  -2.84318
H    -0.72568   2.07705  -2.42363
H     3.77925   0.72405   0.81315
H     3.85124  -0.35809   2.25627
H     2.63375   0.97720   2.18279
H    -1.19366  -1.80332  -2.80240
H     0.57889  -1.77316  -2.44506
H    -0.41999  -3.19059  -1.95262
29

C    -2.52498   2.31541   1.17930
O    -2.04824   1.53866   0.06687
C    -1.80264   0.25337   0.30346
O    -2.09671  -0.33309   1.32205
N    -1.31526  -0.33777  -0.88765
C     0.85587   0.85816  -0.27433
C     0.59657   2.17982  -0.77275
C     0.31564   2.35886  -2.23512
O     0.65659   3.12532   0.01345
C     1.42515  -0.03950   0.31427
O     2.28893  -0.71142   1.01528
C     3.22238   0.21675   1.62879
N    -0.04630  -1.79708   0.26084
C     0.64472  -2.92357   0.29242
N     1.25854  -3.90029   0.50027
N    -0.66611  -1.43444  -0.82077
C    -0.42164  -2.11357  -2.10443
H    -1.79451   2.29151   2.00213
H    -2.64007   3.34206   0.80962
H    -3.49487   1.93176   1.53618
H     0.47290   3.40723  -2.50404
H     0.95596   1.69678  -2.84317
H    -0.72597   2.07648  -2.42384
H     3.78091   0.72327   0.81480
H     3.85263  -0.35957   2.25755
H     2.63557   0.97624   2.18460
H    -1.19367  -1.80302  -2.80290
H     0.57880  -1.77468  -2.44475
H    -0.42140  -3.19110  -1.95221
29

C    -2.52422   2.31472   1.17826
O    -2.04716   1.53683   0.06586
C    -1.80363   0.25143   0.30333
O    -2.09590  -0.33240   1.32418
N    -1.33056  -0.34772  -0.89117
C     0.86962   0.86825  -0.27139
C     0.59575   2.18412  -0.77453
C     0.31406   2.35992  -2.23642
O     0.65424   3.13021   0.01148
C     1.44447  -0.01737   0.31636
O     2.29223  -0.71140   1.01800
C     3.22813   0.21374   1.63423
N    -0.06644  -1.81254   0.26328
C     0.63804  -2.92989   0.28801
N     1.26127  -3.90115   0.49963
N    -0.66268  -1.43245  -0.82228
C    -0.42354  -2.11575  -2.10571
H    -1.79436   2.29129   2.00189
H    -2.63969   3.34180   0.80914
H    -3.49471   1.93166   1.53581
H     0.47165   3.40748  -2.50504
H     0.95595   1.69717  -2.84316
H    -0.72625   2.07591  -2.42404
H     3.78256   0.72248   0.81644
H     3.85401  -0.36105   2.25883
H     2.63740   0.97528   2.18640
H    -1.19368  -1.80272  -2.80340
H     0.57871  -1.77620  -2.44445
H    -0.42280  -3.19160  -1.95180
29

C    -2.52345   2.31403   1.17722
O    -2.04607   1.53500   0.06485
C    -1.80462   0.24949   0.30321
O    -2.09510  -0.33171   1.32631
N    -1.34586  -0.35766  -0.89469
C     0.88336   0.87833  -0.26844
C     0.59493   2.18841  -0.77630
C     0.31249   2.36098  -2.23773
O     0.65188   3.13509   0.00951
C     1.46378   0.00475   0.31844
O     2.29553  -0.71137   1.02073
C     3.23388   0.21074   1.63967
N    -0.08658  -1.82799   0.26573
C     0.63136  -2.93620   0.28361
N     1.26401  -3.90201   0.49900
N    -0.65925  -1.43046  -0.82379
C    -0.42544  -2.11792  -2.10700
H    -1.79420   2.29107   2.00164
H    -2.63931   3.34155   0.80866
H    -3.49455   1.93155   1.53544
H     0.47041   3.40774  -2.50605
H     0.95595   1.69756  -2.84314
H    -0.72654   2.07535  -2.42424
H     3.78421   0.72170   0.81809
H     3.85540  -0.36253   2.26011
H     2.63923   0.97432   2.18821
H    -1.19369  -1.80242  -2.80391
H     0.57862  -1.77772  -2.44414
H    -0.42421  -3.19211  -1.95139
29

C    -2.52268   2.31334   1.17618
O    -2.04499   1.53318   0.06384
C    -1.80561   0.24755   0.30308
O    -2.09429  -0.33102   1.32844
N    -1.36116  -0.36761  -0.89821
C     0.89711   0.88842  -0.26550
C     0.59411   2.19271  -0.77808
C     0.31091   2.36204  -2.23903
O     0.64953   3.13998   0.00754
C     1.48309   0.02688   0.32053
O     2.29883  -0.71135   1.02346
C     3.23963   0.20773   1.64511
N    -0.10672  -1.84345   0.26818
C     0.62468  -2.94251   0.27921
N     1.26674  -3.90288   0.49837
N    -0.65582  -1.42848  -0.82529
C    -0.42734  -2.12010  -2.10829
H    -1.79405   2.29085   2.00139
H    -2.63893   3.34130   0.80818
H    -3.49439   1.93145   1.53507
H     0.46916   3.40800  -2.50705
H     0.95595   1.69794  -2.84313
H    -0.72682   2.07478  -2.42445
H     3.78586   0.72092   0.81973
H     3.85678  -0.36400   2.26139
H     2.64106   0.97336   2.19001
H    -1.19370  -1.80212  -2.80441
H     0.57853  -1.77923  -2.44384
H    -0.42561  -3.19262  -1.95098
29

C    -2.52191   2.31264   1.17514
O    -2.04390   1.53135   0.06283
C    -1.80659   0.24562   0.30296
O    -2.09349  -0.33033   1.33057
N    -1.37646  -0.37756  -0.90173
C     0.91086   0.89850  -0.26255
C     0.59329   2.19700  -0.77986
C     0.30933   2.36310  -2.24034
O     0.64717   3.14487   0.00557
C     1.50241   0.04900   0.32261
O     2.30213  -0.71133   1.02619
C     3.24538   0.20473   1.65055
N    -0.12686  -1.85890   0.27063
C     0.61800  -2.94883   0.27481
N     1.26947  -3.90374   0.49773
N    -0.65239  -1.42649  -0.82680
C    -0.42924  -2.12228  -2.10958
H    -1.79389   2.29064   2.00115
H    -2.63855   3.34105   0.80771
H    -3.49423   1.93134   1.53470
H     0.46792   3.40826  -2.50805
H     0.95595   1.69833  -2.84312
H    -0.72711   2.07422  -2.42465
H     3.78752   0.72013   0.82138
H     3.85817  -0.36548   2.26267
H     2.64289   0.97239   2.19182
H    -1.19371  -1.80182  -2.80491
H     0.57844  -1.78075  -2.44354
H    -0.42701  -3.19312  -1.95058
29

C    -2.52268   2.31334   1.17618
O    -2.04499   1.53318   0.06384
C    -1.80561   0.24755   0.30308
O    -2.09429  -0.33102   1.32844
N    -1.36116  -0.36761  -0.89821
C     0.89711   0.88842  -0.26550
C     0.59411   2.19271  -0.77808
C     0.31091   2.36204  -2.23903
O     0.64953   3.13998   0.00754
C     1.48309   0.02688   0.32053
O     2.29883  -0.71135   1.02346
C     3.23963   0.20773   1.64511
N    -0.10672  -1.84345   0.26818
C     0.62468  -2.94251   0.27921
N     1.26674  -3.90288   0.49837
N    -0.65582  -1.42848  -0.82529
C    -0.42734  -2.12010  -2.10829
H    -1.79405   2.29085   2.00139
H    -2.63893   3.34130   0.80818
H    -3.49439   1.93145   1.53507
H     0.46916   3.40800  -2.50705
H     0.95595   1.69794  -2.84313
H    -0.72682   2.07478  -2.42445
H     3.78586   0.72092   0.81973
H     3.85678  -0.36400   2.26139
H     2.64106   0.97336   2.19001
H    -1.19370  -1.80212  -2.80441
H     0.57853  -1.77923  -2.44384
H    -0.42561  -3.19262  -1.95098
29

C    -2.52345   2.31403   1.17722
O    -2.04607   1.53500   0.06485
C    -1.80462   0.24949   0.30321
O    -2.09510  -0.33171   1.32631
N    -1.34586  -0.35766  -0.89469
C     0.88336   0.87833  -0.26844
C     0.59493   2.18841  -0.77630
C     0.31249   2.36098  -2.23773
O     0.65188   3.13509   0.00951
C     1.46378   0.00475   0.31844
O     2.29553  -0.71137   1.02073
C     3.23388   0.21074   1.63967
N    -0.08658  -1.82799   0.26573
C     0.63136  -2.93620   0.28361
N     1.26401  -3.90201   0.49900
N    -0.65925  -1.43046  -0.82379
C    -0.42544  -2.11792  -2.10700
H    -1.79420   2.29107   2.00164
H    -2.63931   3.34155   0.80866
H    -3.49455   1.93155   1.53544
H     0.47041   3.40774  -2.50605
H     0.95595   1.69756  -2.84314
H    -0.72654   2.07535  -2.42424
H     3.78421   0.72170   0.81809
H     3.85540  -0.36253   2.26011
H     2.63923   0.97432   2.18821
H    -1.19369  -1.80242  -2.80391
H     0.57862  -1.77772  -2.44414
H    -0.42421  -3.19211  -1.95139
29

C    -2.52422   2.31472   1.17826
O    -2.04716   1.53683   0.06586
C    -1.80363   0.25143   0.30333
O    -2.09590  -0.33240   1.32418
N    -1.33056  -0.34772  -0.89117
C     0.86962   0.86825  -0.27139
C     0.59575   2.18412  -0.77453
C     0.31406   2.35992  -2.23642
O     0.65424   3.13021   0.01148
C     1.44447  -0.01737   0.31636
O     2.29223  -0.71140   1.01800
C     3.22813   0.21374   1.63423
N    -0.06644  -1.81254   0.26328
C     0.63804  -2.92989   0.28801
N     1.26127  -3.90115   0.49963
N    -0.66268  -1.43245  -0.82228
C    -0.42354  -2.11575  -2.10571
H    -1.79436   2.29129   2.00189
H    -2.63969   3.34180   0.80914
H    -3.49471   1.93166   1.53581
H     0.47165   3.40748  -2.50504
H     0.95595   1.69717  -2.84316
H    -0.72625   2.07591  -2.42404
H     3.78256   0.72248   0.81644
H     3.85401  -0.36105   2.25883
H     2.63740   0.97528   2.18640
H    -1.19368  -1.80272  -2.80340
H     0.57871  -1.77620  -2.44445
H    -0.42280  -3.19160  -1.95180
29

C    -2.52498   2.31541   1.17930
O    -2.04824   1.53866   0.06687
C    -1.80264   0.25337   0.30346
O    -2.09671  -0.33309   1.32205
N    -1.31526  -0.33777  -0.88765
C     0.85587   0.85816  -0.27433
C     0.59657   2.17982  -0.77275
C     0.31564   2.35886  -2.23512
O     0.65659   3.12532   0.01345
C     1.42515  -0.03950   0.31427
O     2.28893  -0.71142   1.01528
C     3.22238   0.21675   1.62879
N    -0.04630  -1.79708   0.26084
C     0.64472  -2.92357   0.29242
N     1.25854  -3.90029   0.50027
N    -0.66611  -1.43444  -0.82077
C    -0.42164  -2.11357  -2.10443
H    -1.79451   2.29151   2.00213
H    -2.64007   3.34206   0.80962
H    -3.49487   1.93176   1.53618
H     0.47290   3.40723  -2.50404
H     0.95596   1.69678  -2.84317
H    -0.72597   2.07648  -2.42384
H     3.78091   0.72327   0.81480
H     3.85263  -0.35957   2.25755
H     2.63557   0.97624   2.18460
H    -1.19367  -1.80302  -2.80290
H     0.57880  -1.77468  -2.44475
H    -0.42140  -3.19110  -1.95221
29

C    -2.52575   2.31611   1.18034
O    -2.04933   1.54048   0.06787
C    -1.80165   0.25531   0.30358
O    -2.09751  -0.33378   1.31992
N    -1.29996  -0.32782  -0.88413
C     0.84212   0.84808  -0.27727
C     0.59739   2.17553  -0.77097
C     0.31722   2.35780  -2.23381
O     0.65895   3.12043   0.01542
C     1.40584  -0.06163   0.31218
O     2.28564  -0.71144   1.01255
C     3.21663   0.21975   1.62335
N    -0.02616  -1.78163   0.25839
C     0.65140  -2.91726   0.29682
N     1.25581  -3.89943   0.50090
N    -0.66954  -1.43643  -0.81926
C    -0.41974  -2.11139  -2.10314
H    -1.79466   2.29172   2.00238
H    -2.64045   3.34231   0.81010
H    -3.49503   1.93187   1.53655
H     0.47414   3.40697  -2.50304
H     0.95596   1.69640  -2.84318
H    -0.72568   2.07705  -2.42363
H     3.77925   0.72405   0.81315
H     3.85124  -0.35809   2.25627
H     2.63375   0.97720   2.18279
H    -1.19366  -1.80332  -2.80240
H     0.57889  -1.77316  -2.44506
H    -0.41999  -3.19059  -1.95262
29

C    -2.52652   2.31680   1.18138
O    -2.05041   1.54231   0.06888
C    -1.80067   0.25725   0.30371
O    -2.09831  -0.33446   1.31779
N    -1.28466  -0.31787  -0.88061
C     0.82837   0.83800  -0.28022
C     0.59821   2.17123  -0.76920
C     0.31880   2.35674  -2.23251
O     0.66130   3.11555   0.01739
C     1.38653  -0.08375   0.31010
O     2.28234  -0.71147   1.00982
C     3.21088   0.22276   1.61791
N    -0.00602  -1.76617   0.25594
C     0.65808  -2.91095   0.30122
N     1.25307  -3.89856   0.50153
N    -0.67297  -1.43841  -0.81775
C    -0.41784  -2.10922  -2.10185
H    -1.79482   2.29194   2.00263
H    -2.64083   3.34256   0.81058
H    -3.49519   1.93197   1.53692
H     0.47539   3.40671  -2.50204
H     0.95596   1.69601  -2.84320
H    -0.72540   2.07761  -2.42343
H     3.77760   0.72483   0.81151
H     3.84985  -0.35662   2.25499
H     2.63192   0.97817   2.18099
H    -1.19365  -1.80362  -2.80189
H     0.57898  -1.77164  -2.44536
H    -0.41859  -3.19008  -1.95303
29

C    -2.52729   2.31749   1.18242
O    -2.05149   1.54414   0.06989
C    -1.79968   0.25919   0.30383
O    -2.09912  -0.33515   1.31566
N    -1.26936  -0.30792  -0.87709
C     0.81462   0.82791  -0.28316
C     0.59903   2.16694  -0.76742
C     0.32038   2.35568  -2.23120
O     0.66366   3.11066   0.01936
C     1.36721  -0.10588   0.30801
O     2.27904  -0.71149   1.00709
C     3.20513   0.22576   1.61247
N     0.01412  -1.75072   0.25349
C     0.66476  -2.90463   0.30562
N     1.25034  -3.89770   0.50216
N    -0.67640  -1.44040  -0.81624
C    -0.41594  -2.10704  -2.10056
H    -1.79497   2.29216   2.00287
H    -2.64121   3.34281   0.81106
H    -3.49535   1.93208   1.53729
H     0.47663   3.40645  -2.50103
H     0.95596   1.69562  -2.84321
H    -0.72511   2.07818  -2.42322
H     3.77595   0.72562   0.80986
H     3.84847  -0.35514   2.25371
H     2.63009   0.97913   2.17918
H    -1.19364  -1.80392  -2.80139
H     0.57906  -1.77012  -2.44567
H    -0.41719  -3.18958  -1.95344
29

C    -2.52805   2.31818   1.18346
O    -2.05258   1.54596   0.07090
C    -1.79869   0.26112   0.30396
O    -2.09992  -0.33584   1.31353
N    -1.25407  -0.29798  -0.87357
C     0.80087   0.81783  -0.28611
C     0.59985   2.16264  -0.76564
C     0.32196   2.35461  -2.22990
O     0.66601   3.10577   0.02133
C     1.34790  -0.12800   0.30593
O     2.27574  -0.71151   1.00437
C     3.19939   0.22876   1.60703
N     0.03426  -1.73526   0.25104
C     0.67144  -2.89832   0.31003
N     1.24761  -3.89684   0.50280
N    -0.67983  -1.44239  -0.81473
C    -0.41404  -2.10487  -2.09927
H    -1.79513   2.29238   2.00312
H    -2.64159   3.34307   0.81154
H    -3.49551   1.93218   1.53766
H     0.47787   3.40619  -2.50003
H     0.95596   1.69524  -2.84322
H    -0.72483   2.07874  -2.42302
H     3.77430   0.72640   0.80822
H     3.84708  -0.35366   2.25243
H     2.62826   0.98009   2.17737
H    -1.19363  -1.80421  -2.80089
H     0.57915  -1.76860  -2.44597
H    -0.41578  -3.18907  -1.95385
29

C    -2.52882   2.31888   1.18450
O    -2.05366   1.54779   0.07190
C    -1.79770   0.26306   0.30408
O    -2.10072  -0.33653   1.31140
N    -1.23877  -0.28803  -0.87005
C     0.78713   0.80775  -0.28905
C     0.60067   2.15835  -0.76387
C     0.32353   2.35355  -2.22860
O     0.66836   3.10088   0.02330
C     1.32859  -0.15013   0.30384
O     2.27244  -0.71154   1.00164
C     3.19364   0.23177   1.60159
N     0.05440  -1.71981   0.24859
C     0.67812  -2.89201   0.31443
N     1.24487  -3.89598   0.50343
N    -0.68326  -1.44438  -0.81322
C    -0.41215  -2.10269  -2.09798
H    -1.79528   2.29259   2.00337
H    -2.64197   3.34332   0.81202
H    -3.49567   1.93229   1.53803
H     0.47912   3.40593  -2.49903
H     0.95596   1.69485  -2.84324
H    -0.72454   2.07931  -2.42281
H     3.77265   0.72718   0.80657
H     3.84570  -0.35218   2.25115
H     2.62643   0.98105   2.17557
H    -1.19363  -1.80451  -2.80038
H     0.57924  -1.76709  -2.44628
H    -0.41438  -3.18857  -1.95425
29

C    -2.52959   2.31957   1.18554
O    -2.05475   1.54962   0.07291
C    -1.79671   0.26500   0.30421
O    -2.10153  -0.33722   1.30927
N    -1.22347  -0.27808  -0.86654
C     0.77338   0.79766  -0.29200
C     0.60149   2.15406  -0.76209
C     0.32511   2.35249  -2.22729
O     0.67072   3.09600   0.02527
C     1.30928  -0.17226   0.30175
O     2.26914  -0.71156   0.99891
C     3.18789   0.23477   1.59615
N     0.07454  -1.70435   0.24614
C     0.68480  -2.88569   0.31883
N     1.24214  -3.89511   0.50406
N    -0.68669  -1.44636  -0.81171
C    -0.41025  -2.10051  -2.09669
H    -1.79543   2.29281   2.00362
H    -2.64235   3.34357   0.81250
H    -3.49584   1.93239   1.53840
H     0.48036   3.40567  -2.49802
H     0.95597   1.69446  -2.84325
H    -0.72425   2.07987  -2.42261
H     3.77099   0.72797   0.80493
H     3.84431  -0.35071   2.24987
H     2.62460   0.98201   2.17376
H    -1.19362  -1.80481  -2.79988
H     0.57933  -1.76557  -2.44658
H    -0.41297  -3.18806  -1.95466
29

C    -2.53036   2.32026   1.18658
O    -2.05583   1.55144   0.07392
C    -1.79572   0.26694   0.30433
O    -2.10233  -0.33791   1.30714
N    -1.20817  -0.26813  -0.86302
C     0.75963   0.78758  -0.29494
C     0.60231   2.14976  -0.76031
C     0.32669   2.35143  -2.22599
O     0.67307   3.09111   0.02724
C     1.28996  -0.19438   0.29967
O     2.26584  -0.71158   0.99618
C     3.18214   0.23778   1.59071
N     0.09468  -1.68890   0.24369
C     0.69148  -2.87938   0.32324
N     1.23941  -3.89425   0.50469
N    -0.69012  -1.44835  -0.81021
C    -0.40835  -2.09834  -2.09540
H    -1.79559   2.29303   2.00386
H    -2.64273   3.34382   0.81298
H    -3.49600   1.93250   1.53877
H     0.48161   3.40541  -2.49702
H     0.95597   1.69408  -2.84326
H    -0.72397   2.08044  -2.42241
H     3.76934   0.72875   0.80328
H     3.84293  -0.34923   2.24859
H     2.62278   0.98298   2.17196
H    -1.19361  -1.80511  -2.79938
H     0.57942  -1.76405  -2.44688
H    -0.41157  -3.18755  -1.95507
29

C    -2.53113   2.32095   1.18762
O    -2.05692   1.55327   0.07493
C    -1.79474   0.26888   0.30446
O    -2.10314  -0.33860   1.30501
N    -1.19287  -0.25818  -0.85950
C     0.74588   0.77750  -0.29789
C     0.60313   2.14547  -0.75854
C     0.32827   2.35037  -2.22468
O     0.67543   3.08622   0.02921
C     1.27065  -0.21651   0.29758
O     2.26254  -0.71161   0.99345
C     3.17639   0.24078   1.58527
N     0.11482  -1.67344   0.24125
C     0.69816  -2.87307   0.32764
N     1.23667  -3.89339   0.50533
N    -0.69355  -1.45034  -0.80870
C    -0.40645  -2.09616  -2.09411
H    -1.79574   2.29325   2.00411
H    -2.64311   3.34408   0.81345
H    -3.49616   1.93260   1.53914
H     0.48285   3.40515  -2.49602
H     0.95597   1.69369  -2.84328
H    -0.72368   2.08100  -2.42220
H     3.76769   0.72953   0.80164
H     3.84154  -0.34775   2.24731
H     2.62095   0.98394   2.17015
H    -1.19360  -1.80541  -2.79887
H     0.57951  -1.76253  -2.44719
H    -0.41017  -3.18705  -1.95548
29

C    -2.53189   2.32165   1.18866
O    -2.05800   1.55510   0.07594
C    -1.79375   0.27082   0.30458
O    -2.10394  -0.33929   1.30288
N    -1.17757  -0.24824  -0.85598
C     0.73213   0.76741  -0.30083
C     0.60395   2.14117  -0.75676
C     0.32985   2.34931  -2.22338
O     0.67778   3.08134   0.03118
C     1.25134  -0.23863   0.29550
O     2.25925  -0.71163   0.99073
C     3.17064   0.24378   1.57983
N     0.13496  -1.65799   0.23880
C     0.70484  -2.86675   0.33204
N     1.23394  -3.89252   0.50596
N    -0.69698  -1.45233  -0.80719
C    -0.40455  -2.09398  -2.09282
H    -1.79590   2.29346   2.00436
H    -2.64349   3.34433   0.81393
H    -3.49632   1.93271   1.53951
H     0.48410   3.40489  -2.49501
H     0.95597   1.69330  -2.84329
H    -0.72340   2.08157  -2.42200
H     3.76604   0.73032   0.79999
H     3.84016  -0.34628   2.24603
H     2.61912   0.98490   2.16835
H    -1.19359  -1.80571  -2.79837
H     0.57960  -1.76101  -2.44749
H    -0.40876  -3.18654  -1.95589
29

C    -2.53266   2.32234   1.18970
O    -2.05908   1.55692   0.07694
C    -1.79276   0.27275   0.30471
O    -2.10474  -0.33998   1.30075
N    -1.16227  -0.23829  -0.85246
C     0.71839   0.75733  -0.30378
C     0.60477   2.13688  -0.75498
C     0.33143   2.34825  -2.22207
O     0.68014   3.07645   0.03315
C     1.23202  -0.26076   0.29341
O     2.25595  -0.71165   0.98800
C     3.16489   0.24679   1.57440
N     0.15510  -1.64253   0.23635
C     0.71152  -2.86044   0.33644
N     1.23121  -3.89166   0.50659
N    -0.70041  -1.45431  -0.80568
C    -0.40265  -2.09181  -2.09153
H    -1.79605   2.29368   2.00460
H    -2.64387   3.34458   0.81441
H    -3.49648   1.93281   1.53988
H     0.48534   3.40463  -2.49401
H     0.95597   1.69292  -2.84330
H    -0.72311   2.08214  -2.42179
H     3.76438   0.73110   0.79835
H     3.83877  -0.34480   2.24475
H     2.61729   0.98586   2.16654
H    -1.19358  -1.80601  -2.79787
H     0.57969  -1.75949  -2.44780
H    -0.40736  -3.18604  -1.95630
29

C    -2.53343   2.32303   1.19074
O    -2.06017   1.55875   0.07795
C    -1.79177   0.27469   0.30483
O    -2.10555  -0.34067   1.29862
N    -1.14697  -0.22834  -0.84894
C     0.70464   0.74725  -0.30672
C     0.60559   2.13258  -0.75321
C     0.33300   2.34719  -2.22077
O     0.68249   3.07156   0.03512
C     1.21271  -0.28289   0.29133
O     2.25265  -0.71168   0.98527
C     3.15914   0.24979   1.56896
N     0.17524  -1.62708   0.23390
C     0.71820  -2.85413   0.34085
N     1.22847  -3.89080   0.50723
N    -0.70384  -1.45630  -0.80417
C    -0.40075  -2.08963  -2.09024
H    -1.79621   2.29390   2.00485
H    -2.64425   3.34483   0.81489
H    -3.49664   1.93292   1.54025
H     0.48659   3.40437  -2.49301
H     0.95597   1.69253  -2.84332
H    -0.72283   2.08270  -2.42159
H     3.76273   0.73188   0.79670
H     3.83739  -0.34332   2.24347
H     2.61546   0.98682   2.16474
H    -1.19357  -1.80631  -2.79736
H     0.57978  -1.75797  -2.44810
H    -0.40595  -3.18553  -1.95671
29

C    -2.53420   2.32372   1.19178
O    -2.06125   1.56057   0.07896
C    -1.79078   0.27663   0.30496
O    -2.10635  -0.34136   1.29649
N    -1.13167  -0.21839  -0.84542
C     0.69089   0.73716  -0.30967
C     0.60641   2.12829  -0.75143
C     0.33458   2.34613  -2.21946
O     0.68485   3.06667   0.03709
C     1.19340  -0.30501   0.28924
O     2.24935  -0.71170   0.98254
C     3.15339   0.25280   1.56352
N     0.19537  -1.61162   0.23145
C     0.72488  -2.84781   0.34525
N     1.22574  -3.88994   0.50786
N    -0.70727  -1.45829  -0.80266
C    -0.39885  -2.08746  -2.08895
H    -1.79636   2.29412   2.00510
H    -2.64463   3.34508   0.81537
H    -3.49680   1.93302   1.54062
H     0.48783   3.40411  -2.49201
H     0.95598   1.69214  -2.84333
H    -0.72254   2.08327  -2.42138
H     3.76108   0.73267   0.79506
H     3.83600  -0.34184   2.24219
H     2.61364   0.98779   2.16293
H    -1.19356  -1.80661  -2.79686
H     0.57986  -1.75645  -2.44841
H    -0.40455  -3.18502  -1.95712
29

C    -2.53496   2.32442   1.19282
O    -2.06234   1.56240   0.07997
C    -1.78980   0.27857   0.30509
O    -2.10715  -0.34205   1.29436
N    -1.11638  -0.20844  -0.84190
C     0.67714   0.72708  -0.31261
C     0.60723   2.12399  -0.74965
C     0.33616   2.34507  -2.21816
O     0.68720   3.06179   0.03906
C     1.17408  -0.32714   0.28715
O     2.24605  -0.71172   0.97982
C     3.14764   0.25580   1.55808
N     0.21551  -1.59617   0.22900
C     0.73156  -2.84150   0.34965
N     1.22301  -3.88907   0.50849
N    -0.71070  -1.46028  -0.80115
C    -0.39695  -2.08528  -2.08766
H    -1.79651   2.29434   2.00534
H    -2.64501   3.34534   0.81585
H    -3.49696   1.93313   1.54099
H     0.48907   3.40385  -2.49100
H     0.95598   1.69176  -2.84334
H    -0.72226   2.08383  -2.42118
H     3.75943   0.73345   0.79341
H     3.83461  -0.34037   2.24091
H     2.61181   0.98875   2.16113
H    -1.19355  -1.80691  -2.79636
H     0.57995  -1.75494  -2.44871
H    -0.40315  -3.18452  -1.95752
29

C    -2.53573   2.32511   1.19386
O    -2.06342   1.56423   0.08098
C    -1.78881   0.28051   0.30521
O    -2.10796  -0.34273   1.29223
N    -1.10108  -0.19850  -0.83838
C     0.66339   0.71700  -0.31556
C     0.60805   2.11970  -0.74788
C     0.33774   2.34401  -2.21685
O     0.68955   3.05690   0.04103
C     1.15477  -0.34926   0.28507
O     2.24275  -0.71175   0.97709
C     3.14189   0.25880   1.55264
N     0.23565  -1.58071   0.22655
C     0.73824  -2.83519   0.35405
N     1.22027  -3.88821   0.50912
N    -0.71413  -1.46226  -0.79964
C    -0.39505  -2.08310  -2.08637
H    -1.79667   2.29455   2.00559
H    -2.64539   3.34559   0.81633
H    -3.49712   1.93323   1.54136
H     0.49032   3.40359  -2.49000
H     0.95598   1.69137  -2.84336
H    -0.72197   2.08440  -2.42098
H     3.75778   0.73423   0.79177
H     3.83323  -0.33889   2.23963
H     2.60998   0.98971   2.15932
H    -1.19354  -1.80720  -2.79585
H     0.58004  -1.75342  -2.44901
H    -0.40174  -3.18401  -1.95793
29

C    -2.53650   2.32580   1.19490
O    -2.06451   1.56605   0.08198
C    -1.78782   0.28245   0.30534
O    -2.10876  -0.34342   1.29010
N    -1.08578  -0.18855  -0.83486
C     0.64964   0.70691  -0.31850
C     0.60887   2.11540  -0.74610
C     0.33932   2.34295  -2.21555
O     0.69191   3.05201   0.04300
C     1.13546  -0.37139   0.28298
O     2.23945  -0.71177   0.97436
C     3.13614   0.26181   1.54720
N     0.25579  -1.56526   0.22411
C     0.74492  -2.82888   0.35846
N     1.21754  -3.88735   0.50976
N    -0.71756  -1.46425  -0.79813
C    -0.39316  -2.08093  -2.08508
H    -1.79682   2.29477   2.00584
H    -2.64577   3.34584   0.81681
H    -3.49728   1.93334   1.54173
H     0.49156   3.40333  -2.48900
H     0.95598   1.69099  -2.84337
H    -0.72169   2.08496  -2.42077
H     3.75612   0.73502   0.79012
H     3.83184  -0.33741   2.23835
H     2.60815   0.99067   2.15752
H    -1.19354  -1.80750  -2.79535
H     0.58013  -1.75190  -2.44932
H    -0.40034  -3.18350  -1.95834
