13

N 3.780643476 1.865176749 1.249635238
C 1.626471836 1.076956619 0.550542435
C 0.588532449 -1.535118318 0.478882206
O 2.053683639 -3.405532746 1.377483053
C -1.711845052 -1.541451376 -0.535753211
C -2.436752157 1.112766684 -1.226062719
N -0.295524593 2.555775480 -0.343950866
H -2.717222984 1.314291688 -3.270183890
H 4.850521294 0.392086064 1.851092564
H 1.203279652 -4.998029763 1.207943061
H -2.933338375 -3.150023046 -0.841025125
H -4.190510616 1.698694183 -0.293607598
H 0.018239145 4.364472605 -0.812260527

