12

C -2.321129698 -0.939345213 -1.825213142
C -0.430596245 0.176351151 -0.618746902
N -0.818026289 2.548942362 0.722140433
O -2.923526293 2.894435642 1.459502685
C 2.228723697 -0.683458948 -0.676361345
H 2.541312291 -2.400006621 -1.761581018
C 4.354001745 1.051495262 -0.329320172
H 6.158188680 0.580161246 -1.187006105
H 3.979751899 3.042432907 -0.018242188
O 3.566644181 -0.573686477 1.644270297
H -4.205062565 -0.144935701 -1.749696228
H -2.023257272 -2.635215144 -2.929874337

