14

C -2.496547192 -2.113559233 -0.449275432
C -0.722690494 0.064898997 -0.125506973
N -1.258631941 2.096317731 1.033384883
O -3.700814679 2.064878414 1.971562755
C 1.859654686 -0.110299988 -1.231177395
C 4.064757922 0.936868085 0.029741020
O 3.582245816 -1.705346416 0.075308213
H -4.155786577 -1.538407216 -1.532597442
H -1.564605869 -3.678671927 -1.405785746
H -3.171801441 -2.758375436 1.388372335
H -3.844361960 3.673080832 2.795429772
H 1.906289291 -0.345981566 -3.275830751
H 5.687520849 1.505858838 -1.090030538
H 3.814771571 1.908738886 1.816405318

