14

C -2.605177664 -1.405606070 -1.023489691
C -0.624144527 0.183666734 -0.439204703
N -1.046252406 2.170265057 1.122089043
O -3.289040635 2.409574777 1.836093467
C 2.056499671 -0.477002382 -0.946763446
C 4.136566040 1.165959375 -0.176856161
O 3.609302726 -1.090442669 1.159637825
H -4.457638672 -0.625437742 -1.389573313
H -2.234305230 -3.289501124 -1.740503240
H -3.826923908 -1.733362966 1.939936072
H -4.072766449 -0.233311030 2.450580908
H 2.343948652 -1.706139931 -2.568057112
H 5.867155815 1.153114585 -1.280171077
H 3.707132374 2.895097386 0.835289334

