13

C -0.790583006 3.719568661 1.165258702
C 2.841865029 -1.722213110 -1.776512727
C 0.716293733 -2.669036668 -0.349680402
C -1.215422975 -0.979426229 0.922921509
C -1.328693253 1.646500930 -0.128099885
N 1.114630218 -2.486566944 -3.185509627
H -0.907254186 5.575234665 0.308672041
H -0.221647470 3.638029757 3.134464081
H 4.691571913 -0.868536193 -1.935544141
H 0.801135066 -4.578532465 0.407414729
H -0.788702785 -0.903601837 2.945018734
H -3.074160426 -1.874666557 0.741754599
H -1.881008346 1.810005250 -2.099302667

