19

C 3.515232916 1.395251089 2.423264747
C 1.770935408 -0.804712564 2.017575319
C 1.020124108 -1.500794712 -0.373970016
O -0.123977826 -3.801078294 -0.791210697
C -1.696934338 1.400606687 -1.379644257
C -2.982477604 -0.059020078 -3.458381337
O -2.959116072 2.028341807 0.544958294
H 5.481155084 0.776693424 2.298046864
H 3.213349186 2.854989177 1.000047468
H 3.234727847 2.251266183 4.274875473
H 1.754609006 -2.245852307 3.479634425
H -0.722020473 0.198337490 3.427124907
H 2.052422965 -0.858918658 -2.015431084
H -1.134402082 -4.235055089 0.652104461
H -0.192729955 2.699970559 -1.994565447
H -4.063776473 -1.631982920 -2.690616812
H -4.292915819 1.220751001 -4.413572924
H -1.643415537 -0.782546416 -4.846705881
H -1.880631666 1.070861478 2.672373207

