14

C -1.607009812 -1.903906856 -0.408996997
C 0.146366545 0.038809192 -1.629511839
C -0.552018764 2.478913232 -0.234885379
C -1.639604753 -1.085935048 2.403643248
O 0.678898510 1.320153657 1.978995275
C 2.399877666 0.090780534 0.172813810
H -3.495890359 -1.769489125 -1.235090696
H -0.900161685 -3.821585110 -0.744537334
H 0.391317683 -0.011842328 -3.669759959
H -2.521994641 2.895393714 0.161783989
H 0.527196493 4.145250636 -0.789292020
H -0.371303386 -2.341043840 3.470369835
H 3.157797266 -1.665188356 0.926228246
H 3.897270966 1.415222811 -0.335727477

