14

C -1.443060442 -1.902528528 -0.367999464
C 0.188310112 0.111526723 -1.631627387
C -0.841061767 2.397414106 -0.259638789
C -1.403103298 -0.731319834 2.248880990
O 1.113005224 0.950019558 2.176512473
C 2.534618578 0.067856985 0.046250782
H -3.357075028 -1.836590938 -1.157183354
H -0.700900761 -3.821613381 -0.629580778
H 0.315931462 0.133159665 -3.685295643
H -2.861266564 2.702413559 -0.175879777
H 0.272021540 4.126445707 -0.275488073
H -1.115294438 -2.040168355 3.813016733
H 3.407970228 -1.768101707 0.389285868
H 3.957470440 1.480946068 -0.435657876

