11

N 4.096412573 0.074268202 0.997111495
C 3.211173393 0.492589410 -1.169065971
O 0.744909270 0.404418908 -1.731365545
C -0.928143276 -0.207457630 0.182823576
C -3.378137310 0.046709003 -0.252538275
O -5.250089937 -0.512613042 1.405799200
H 6.003533513 0.232271964 0.987802704
H 4.270979557 0.969551729 -2.870741405
H -0.093531711 -0.875572966 1.925549020
H -4.535921069 -1.112172459 2.963337362
H -4.095786204 0.744580609 -2.036459409

