11

N 3.855170589 0.368449068 1.003311328
C 3.030067446 0.055093756 -1.203401350
O 0.588038305 -0.328751326 -1.746990367
C -1.106979643 -0.470675824 0.275088415
C -3.539327358 0.578057036 0.010718772
O -5.046378916 -0.641938491 1.433406493
H 5.753229669 0.608592648 0.997308348
H 4.126554706 0.034124542 -2.948337188
H -0.263149767 -0.062596535 2.110835419
H -3.080381140 -2.036345231 1.519401182
H -4.224899247 2.122317188 -1.167959612

