26

C    -4.22843  -0.54847   0.35471
O    -3.20839  -0.86631  -0.59974
C    -1.97596  -1.09947  -0.09948
O    -1.76560  -1.14666   1.10977
C    -0.99854  -1.25874  -1.17250
C    -1.42714  -1.56878  -2.57412
O     0.22709  -1.72829  -0.88239
C     0.92503  -1.35430   0.19222
C     2.31404  -1.89988   0.20265
C     0.72906   0.65597  -0.04992
Br    2.01986   1.51859   1.02141
C    -0.23739   0.98050  -0.79950
C    -1.22216   1.71788  -1.64025
H    -4.38162  -1.37128   1.07224
H    -5.14439  -0.36995  -0.21226
H    -3.94760   0.36042   0.91461
H    -2.07922  -0.79525  -2.95996
H    -1.98308  -2.54832  -2.71079
H    -0.53091  -1.63918  -3.21864
H     0.36428  -1.31213   1.12454
H     2.71132  -1.99691  -0.83785
H     2.94601  -1.27569   0.79241
H     2.39927  -2.95396   0.64632
H    -2.27333   1.41083  -1.35990
H    -1.20356   2.80581  -1.68287
H    -1.13455   1.35783  -2.72171
26

C    -4.22796  -0.54844   0.35529
O    -3.21011  -0.86874  -0.59981
C    -1.97587  -1.10294  -0.10068
O    -1.76340  -1.14357   1.10905
C    -1.00315  -1.27135  -1.17189
C    -1.42742  -1.57313  -2.57581
O     0.22692  -1.72842  -0.88203
C     0.92335  -1.37273   0.19339
C     2.31482  -1.90691   0.20066
C     0.72726   0.68970  -0.04973
Br    2.02469   1.51679   1.02639
C    -0.23674   1.00276  -0.80067
C    -1.22769   1.71569  -1.64622
H    -4.38156  -1.37090   1.07285
H    -5.14447  -0.36992  -0.21176
H    -3.94720   0.36059   0.91441
H    -2.07889  -0.79596  -2.96002
H    -1.98297  -2.54936  -2.71358
H    -0.53048  -1.63949  -3.21846
H     0.36434  -1.31344   1.12432
H     2.71078  -1.99914  -0.83869
H     2.94534  -1.27604   0.79086
H     2.40205  -2.95535   0.64662
H    -2.27376   1.40757  -1.36069
H    -1.20897   2.80514  -1.68737
H    -1.13468   1.35508  -2.72245
26

C    -4.22749  -0.54841   0.35588
O    -3.21184  -0.87117  -0.59988
C    -1.97579  -1.10641  -0.10187
O    -1.76120  -1.14049   1.10833
C    -1.00777  -1.28396  -1.17128
C    -1.42771  -1.57747  -2.57749
O     0.22675  -1.72855  -0.88167
C     0.92168  -1.39116   0.19456
C     2.31561  -1.91394   0.19866
C     0.72545   0.72344  -0.04954
Br    2.02952   1.51498   1.03138
C    -0.23608   1.02502  -0.80184
C    -1.23323   1.71349  -1.65218
H    -4.38149  -1.37052   1.07347
H    -5.14456  -0.36989  -0.21126
H    -3.94681   0.36076   0.91422
H    -2.07857  -0.79668  -2.96007
H    -1.98287  -2.55039  -2.71636
H    -0.53004  -1.63980  -3.21827
H     0.36441  -1.31476   1.12411
H     2.71023  -2.00137  -0.83953
H     2.94467  -1.27640   0.78932
H     2.40483  -2.95674   0.64693
H    -2.27418   1.40432  -1.36149
H    -1.21437   2.80448  -1.69187
H    -1.13481   1.35234  -2.72318
26

C    -4.22702  -0.54837   0.35647
O    -3.21356  -0.87361  -0.59995
C    -1.97571  -1.10988  -0.10306
O    -1.75901  -1.13740   1.10761
C    -1.01238  -1.29657  -1.17067
C    -1.42800  -1.58181  -2.57917
O     0.22658  -1.72869  -0.88131
C     0.92000  -1.40960   0.19572
C     2.31640  -1.92098   0.19667
C     0.72365   0.75717  -0.04935
Br    2.03435   1.51318   1.03637
C    -0.23542   1.04728  -0.80301
C    -1.23876   1.71130  -1.65814
H    -4.38142  -1.37014   1.07409
H    -5.14464  -0.36986  -0.21076
H    -3.94641   0.36093   0.91402
H    -2.07824  -0.79739  -2.96013
H    -1.98276  -2.55142  -2.71915
H    -0.52960  -1.64012  -3.21809
H     0.36448  -1.31607   1.12390
H     2.70969  -2.00360  -0.84038
H     2.94401  -1.27675   0.78777
H     2.40762  -2.95813   0.64724
H    -2.27461   1.40106  -1.36228
H    -1.21978   2.80381  -1.69637
H    -1.13494   1.34959  -2.72391
26

C    -4.22655  -0.54834   0.35705
O    -3.21529  -0.87604  -0.60002
C    -1.97563  -1.11335  -0.10425
O    -1.75681  -1.13432   1.10689
C    -1.01700  -1.30918  -1.17006
C    -1.42828  -1.58616  -2.58085
O     0.22641  -1.72882  -0.88096
C     0.91832  -1.42803   0.19689
C     2.31719  -1.92801   0.19467
C     0.72185   0.79090  -0.04917
Br    2.03919   1.51137   1.04136
C    -0.23477   1.06954  -0.80417
C    -1.24429   1.70911  -1.66411
H    -4.38136  -1.36976   1.07470
H    -5.14473  -0.36983  -0.21026
H    -3.94602   0.36111   0.91383
H    -2.07792  -0.79810  -2.96019
H    -1.98266  -2.55246  -2.72194
H    -0.52917  -1.64043  -3.21790
H     0.36454  -1.31738   1.12369
H     2.70914  -2.00583  -0.84122
H     2.94334  -1.27711   0.78622
H     2.41040  -2.95952   0.64754
H    -2.27503   1.39781  -1.36308
H    -1.22518   2.80314  -1.70087
H    -1.13506   1.34685  -2.72465
26

C    -4.22608  -0.54831   0.35764
O    -3.21702  -0.87847  -0.60009
C    -1.97555  -1.11682  -0.10544
O    -1.75461  -1.13123   1.10617
C    -1.02161  -1.32178  -1.16945
C    -1.42857  -1.59050  -2.58253
O     0.22623  -1.72895  -0.88060
C     0.91665  -1.44646   0.19806
C     2.31798  -1.93504   0.19268
C     0.72004   0.82463  -0.04898
Br    2.04402   1.50957   1.04634
C    -0.23411   1.09180  -0.80534
C    -1.24983   1.70691  -1.67007
H    -4.38129  -1.36938   1.07532
H    -5.14481  -0.36981  -0.20976
H    -3.94562   0.36128   0.91363
H    -2.07759  -0.79882  -2.96024
H    -1.98255  -2.55349  -2.72473
H    -0.52873  -1.64074  -3.21772
H     0.36461  -1.31869   1.12348
H     2.70860  -2.00806  -0.84206
H     2.94267  -1.27746   0.78467
H     2.41318  -2.96091   0.64785
H    -2.27545   1.39456  -1.36388
H    -1.23059   2.80247  -1.70537
H    -1.13519   1.34410  -2.72538
26

C    -4.22561  -0.54827   0.35823
O    -3.21874  -0.88090  -0.60016
C    -1.97547  -1.12029  -0.10663
O    -1.75241  -1.12814   1.10545
C    -1.02622  -1.33439  -1.16884
C    -1.42885  -1.59485  -2.58421
O     0.22606  -1.72909  -0.88024
C     0.91497  -1.46490   0.19923
C     2.31877  -1.94207   0.19068
C     0.71824   0.85837  -0.04879
Br    2.04885   1.50777   1.05133
C    -0.23345   1.11406  -0.80651
C    -1.25536   1.70472  -1.67604
H    -4.38123  -1.36900   1.07593
H    -5.14490  -0.36978  -0.20927
H    -3.94523   0.36145   0.91344
H    -2.07727  -0.79953  -2.96030
H    -1.98245  -2.55452  -2.72751
H    -0.52829  -1.64105  -3.21753
H     0.36467  -1.32001   1.12327
H     2.70805  -2.01028  -0.84290
H     2.94200  -1.27782   0.78312
H     2.41596  -2.96230   0.64815
H    -2.27588   1.39130  -1.36467
H    -1.23599   2.80180  -1.70987
H    -1.13532   1.34135  -2.72611
26

C    -4.22514  -0.54824   0.35881
O    -3.22047  -0.88334  -0.60023
C    -1.97539  -1.12376  -0.10782
O    -1.75021  -1.12506   1.10473
C    -1.03084  -1.34700  -1.16823
C    -1.42914  -1.59919  -2.58589
O     0.22589  -1.72922  -0.87988
C     0.91330  -1.48333   0.20039
C     2.31955  -1.94910   0.18869
C     0.71643   0.89210  -0.04860
Br    2.05368   1.50596   1.05632
C    -0.23279   1.13632  -0.80768
C    -1.26090   1.70253  -1.68200
H    -4.38116  -1.36862   1.07655
H    -5.14498  -0.36975  -0.20877
H    -3.94484   0.36162   0.91324
H    -2.07695  -0.80025  -2.96036
H    -1.98234  -2.55556  -2.73030
H    -0.52785  -1.64136  -3.21735
H     0.36474  -1.32132   1.12306
H     2.70751  -2.01251  -0.84374
H     2.94133  -1.27818   0.78157
H     2.41874  -2.96369   0.64846
H    -2.27630   1.38805  -1.36547
H    -1.24139   2.80114  -1.71437
H    -1.13545   1.33861  -2.72685
26

C    -4.22467  -0.54821   0.35940
O    -3.22219  -0.88577  -0.60031
C    -1.97531  -1.12722  -0.10901
O    -1.74802  -1.12197   1.10401
C    -1.03545  -1.35961  -1.16762
C    -1.42943  -1.60353  -2.58757
O     0.22572  -1.72935  -0.87952
C     0.91162  -1.50176   0.20156
C     2.32034  -1.95613   0.18669
C     0.71463   0.92583  -0.04841
Br    2.05851   1.50416   1.06130
C    -0.23214   1.15859  -0.80885
C    -1.26643   1.70033  -1.68797
H    -4.38110  -1.36824   1.07717
H    -5.14507  -0.36972  -0.20827
H    -3.94444   0.36179   0.91305
H    -2.07662  -0.80096  -2.96041
H    -1.98224  -2.55659  -2.73309
H    -0.52742  -1.64168  -3.21717
H     0.36481  -1.32263   1.12284
H     2.70696  -2.01474  -0.84458
H     2.94066  -1.27853   0.78002
H     2.42152  -2.96508   0.64876
H    -2.27673   1.38479  -1.36627
H    -1.24680   2.80047  -1.71887
H    -1.13558   1.33586  -2.72758
26

C    -4.22420  -0.54817   0.35998
O    -3.22392  -0.88820  -0.60038
C    -1.97522  -1.13069  -0.11021
O    -1.74582  -1.11889   1.10329
C    -1.04006  -1.37221  -1.16701
C    -1.42971  -1.60788  -2.58925
O     0.22555  -1.72949  -0.87916
C     0.90994  -1.52020   0.20273
C     2.32113  -1.96316   0.18470
C     0.71283   0.95956  -0.04822
Br    2.06335   1.50235   1.06629
C    -0.23148   1.18085  -0.81002
C    -1.27196   1.69814  -1.69393
H    -4.38103  -1.36786   1.07778
H    -5.14515  -0.36969  -0.20777
H    -3.94405   0.36196   0.91285
H    -2.07630  -0.80168  -2.96047
H    -1.98213  -2.55762  -2.73588
H    -0.52698  -1.64199  -3.21698
H     0.36487  -1.32394   1.12263
H     2.70642  -2.01697  -0.84543
H     2.94000  -1.27889   0.77847
H     2.42430  -2.96647   0.64907
H    -2.27715   1.38154  -1.36706
H    -1.25220   2.79980  -1.72337
H    -1.13570   1.33311  -2.72832
26

C    -4.22373  -0.54814   0.36057
O    -3.22564  -0.89064  -0.60045
C    -1.97514  -1.13416  -0.11140
O    -1.74362  -1.11580   1.10257
C    -1.04468  -1.38482  -1.16640
C    -1.43000  -1.61222  -2.59094
O     0.22538  -1.72962  -0.87880
C     0.90827  -1.53863   0.20389
C     2.32192  -1.97019   0.18270
C     0.71102   0.99329  -0.04804
Br    2.06818   1.50055   1.07128
C    -0.23082   1.20311  -0.81119
C    -1.27750   1.69595  -1.69990
H    -4.38097  -1.36748   1.07840
H    -5.14524  -0.36966  -0.20727
H    -3.94365   0.36213   0.91266
H    -2.07597  -0.80239  -2.96053
H    -1.98203  -2.55865  -2.73866
H    -0.52654  -1.64230  -3.21680
H     0.36494  -1.32526   1.12242
H     2.70588  -2.01920  -0.84627
H     2.93933  -1.27924   0.77692
H     2.42708  -2.96786   0.64937
H    -2.27757   1.37828  -1.36786
H    -1.25761   2.79913  -1.72787
H    -1.13583   1.33037  -2.72905
26

C    -4.22326  -0.54811   0.36116
O    -3.22737  -0.89307  -0.60052
C    -1.97506  -1.13763  -0.11259
O    -1.74142  -1.11272   1.10186
C    -1.04929  -1.39743  -1.16578
C    -1.43028  -1.61657  -2.59262
O     0.22520  -1.72975  -0.87844
C     0.90659  -1.55706   0.20506
C     2.32271  -1.97723   0.18071
C     0.70922   1.02703  -0.04785
Br    2.07301   1.49874   1.07627
C    -0.23016   1.22537  -0.81236
C    -1.28303   1.69375  -1.70586
H    -4.38090  -1.36711   1.07902
H    -5.14532  -0.36964  -0.20677
H    -3.94326   0.36230   0.91247
H    -2.07565  -0.80310  -2.96058
H    -1.98192  -2.55969  -2.74145
H    -0.52610  -1.64261  -3.21661
H     0.36501  -1.32657   1.12221
H     2.70533  -2.02143  -0.84711
H     2.93866  -1.27960   0.77537
H     2.42986  -2.96925   0.64968
H    -2.27800   1.37503  -1.36865
H    -1.26301   2.79846  -1.73237
H    -1.13596   1.32762  -2.72978
26

C    -4.22279  -0.54807   0.36174
O    -3.22909  -0.89550  -0.60059
C    -1.97498  -1.14110  -0.11378
O    -1.73923  -1.10963   1.10114
C    -1.05390  -1.41004  -1.16517
C    -1.43057  -1.62091  -2.59430
O     0.22503  -1.72989  -0.87809
C     0.90491  -1.57550   0.20623
C     2.32349  -1.98426   0.17872
C     0.70741   1.06076  -0.04766
Br    2.07784   1.49694   1.08125
C    -0.22951   1.24763  -0.81353
C    -1.28857   1.69156  -1.71183
H    -4.38084  -1.36673   1.07963
H    -5.14541  -0.36961  -0.20627
H    -3.94287   0.36248   0.91227
H    -2.07532  -0.80382  -2.96064
H    -1.98182  -2.56072  -2.74424
H    -0.52567  -1.64293  -3.21643
H     0.36507  -1.32788   1.12200
H     2.70479  -2.02365  -0.84795
H     2.93799  -1.27995   0.77382
H     2.43264  -2.97064   0.64998
H    -2.27842   1.37178  -1.36945
H    -1.26842   2.79780  -1.73687
H    -1.13609   1.32487  -2.73052
26

C    -4.22232  -0.54804   0.36233
O    -3.23082  -0.89794  -0.60066
C    -1.97490  -1.14457  -0.11497
O    -1.73703  -1.10655   1.10042
C    -1.05852  -1.42265  -1.16456
C    -1.43086  -1.62526  -2.59598
O     0.22486  -1.73002  -0.87773
C     0.90324  -1.59393   0.20740
C     2.32428  -1.99129   0.17672
C     0.70561   1.09449  -0.04747
Br    2.08267   1.49514   1.08624
C    -0.22885   1.26989  -0.81470
C    -1.29410   1.68937  -1.71779
H    -4.38077  -1.36635   1.08025
H    -5.14549  -0.36958  -0.20578
H    -3.94247   0.36265   0.91208
H    -2.07500  -0.80453  -2.96069
H    -1.98171  -2.56175  -2.74703
H    -0.52523  -1.64324  -3.21624
H     0.36514  -1.32919   1.12179
H     2.70424  -2.02588  -0.84879
H     2.93732  -1.28031   0.77227
H     2.43542  -2.97203   0.65029
H    -2.27885   1.36852  -1.37025
H    -1.27382   2.79713  -1.74137
H    -1.13622   1.32213  -2.73125
26

C    -4.22185  -0.54801   0.36292
O    -3.23254  -0.90037  -0.60073
C    -1.97482  -1.14804  -0.11616
O    -1.73483  -1.10346   1.09970
C    -1.06313  -1.43525  -1.16395
C    -1.43114  -1.62960  -2.59766
O     0.22469  -1.73015  -0.87737
C     0.90156  -1.61236   0.20856
C     2.32507  -1.99832   0.17473
C     0.70381   1.12822  -0.04728
Br    2.08751   1.49333   1.09123
C    -0.22819   1.29215  -0.81587
C    -1.29963   1.68718  -1.72375
H    -4.38071  -1.36597   1.08086
H    -5.14558  -0.36955  -0.20528
H    -3.94208   0.36282   0.91188
H    -2.07467  -0.80525  -2.96075
H    -1.98161  -2.56279  -2.74981
H    -0.52479  -1.64355  -3.21606
H     0.36520  -1.33051   1.12158
H     2.70370  -2.02811  -0.84964
H     2.93666  -1.28067   0.77072
H     2.43820  -2.97342   0.65059
H    -2.27927   1.36527  -1.37104
H    -1.27923   2.79646  -1.74587
H    -1.13634   1.31938  -2.73198
26

C    -4.22138  -0.54797   0.36350
O    -3.23427  -0.90280  -0.60080
C    -1.97474  -1.15151  -0.11735
O    -1.73263  -1.10038   1.09898
C    -1.06774  -1.44786  -1.16334
C    -1.43143  -1.63394  -2.59934
O     0.22452  -1.73029  -0.87701
C     0.89988  -1.63080   0.20973
C     2.32586  -2.00535   0.17273
C     0.70200   1.16195  -0.04709
Br    2.09234   1.49153   1.09621
C    -0.22753   1.31441  -0.81704
C    -1.30517   1.68498  -1.72972
H    -4.38064  -1.36559   1.08148
H    -5.14566  -0.36952  -0.20478
H    -3.94168   0.36299   0.91169
H    -2.07435  -0.80596  -2.96081
H    -1.98150  -2.56382  -2.75260
H    -0.52436  -1.64386  -3.21588
H     0.36527  -1.33182   1.12136
H     2.70315  -2.03034  -0.85048
H     2.93599  -1.28102   0.76917
H     2.44098  -2.97482   0.65090
H    -2.27970   1.36201  -1.37184
H    -1.28463   2.79579  -1.75037
H    -1.13647   1.31663  -2.73272
26

C    -4.22091  -0.54794   0.36409
O    -3.23600  -0.90524  -0.60087
C    -1.97465  -1.15498  -0.11854
O    -1.73044  -1.09729   1.09826
C    -1.07236  -1.46047  -1.16273
C    -1.43172  -1.63829  -2.60102
O     0.22434  -1.73042  -0.87665
C     0.89821  -1.64923   0.21090
C     2.32665  -2.01238   0.17074
C     0.70020   1.19569  -0.04691
Br    2.09717   1.48972   1.10120
C    -0.22688   1.33667  -0.81821
C    -1.31070   1.68279  -1.73568
H    -4.38058  -1.36521   1.08210
H    -5.14575  -0.36949  -0.20428
H    -3.94129   0.36316   0.91149
H    -2.07402  -0.80668  -2.96086
H    -1.98140  -2.56485  -2.75539
H    -0.52392  -1.64418  -3.21569
H     0.36534  -1.33313   1.12115
H     2.70261  -2.03257  -0.85132
H     2.93532  -1.28138   0.76763
H     2.44376  -2.97621   0.65120
H    -2.28012   1.35876  -1.37264
H    -1.29003   2.79512  -1.75487
H    -1.13660   1.31389  -2.73345
26

C    -4.22044  -0.54791   0.36468
O    -3.23772  -0.90767  -0.60094
C    -1.97457  -1.15845  -0.11974
O    -1.72824  -1.09420   1.09754
C    -1.07697  -1.47308  -1.16212
C    -1.43200  -1.64263  -2.60270
O     0.22417  -1.73055  -0.87629
C     0.89653  -1.66766   0.21207
C     2.32743  -2.01941   0.16874
C     0.69839   1.22942  -0.04672
Br    2.10200   1.48792   1.10619
C    -0.22622   1.35893  -0.81937
C    -1.31624   1.68060  -1.74165
H    -4.38051  -1.36483   1.08271
H    -5.14583  -0.36947  -0.20378
H    -3.94089   0.36333   0.91130
H    -2.07370  -0.80739  -2.96092
H    -1.98129  -2.56589  -2.75818
H    -0.52348  -1.64449  -3.21551
H     0.36540  -1.33444   1.12094
H     2.70206  -2.03480  -0.85216
H     2.93465  -1.28173   0.76608
H     2.44654  -2.97760   0.65151
H    -2.28054   1.35550  -1.37343
H    -1.29544   2.79446  -1.75937
H    -1.13673   1.31114  -2.73418
26

C    -4.21997  -0.54787   0.36526
O    -3.23945  -0.91010  -0.60101
C    -1.97449  -1.16192  -0.12093
O    -1.72604  -1.09112   1.09682
C    -1.08159  -1.48568  -1.16151
C    -1.43229  -1.64698  -2.60439
O     0.22400  -1.73069  -0.87593
C     0.89486  -1.68610   0.21323
C     2.32822  -2.02644   0.16675
C     0.69659   1.26315  -0.04653
Br    2.10684   1.48611   1.11117
C    -0.22556   1.38119  -0.82054
C    -1.32177   1.67840  -1.74761
H    -4.38045  -1.36445   1.08333
H    -5.14592  -0.36944  -0.20328
H    -3.94050   0.36350   0.91110
H    -2.07337  -0.80810  -2.96098
H    -1.98119  -2.56692  -2.76096
H    -0.52304  -1.64480  -3.21532
H     0.36547  -1.33575   1.12073
H     2.70152  -2.03703  -0.85300
H     2.93398  -1.28209   0.76453
H     2.44933  -2.97899   0.65181
H    -2.28097   1.35225  -1.37423
H    -1.30084   2.79379  -1.76387
H    -1.13686   1.30839  -2.73492
26

C    -4.21950  -0.54784   0.36585
O    -3.24117  -0.91253  -0.60108
C    -1.97441  -1.16538  -0.12212
O    -1.72384  -1.08803   1.09610
C    -1.08620  -1.49829  -1.16090
C    -1.43257  -1.65132  -2.60607
O     0.22383  -1.73082  -0.87557
C     0.89318  -1.70453   0.21440
C     2.32901  -2.03348   0.16475
C     0.69479   1.29688  -0.04634
Br    2.11167   1.48431   1.11616
C    -0.22490   1.40345  -0.82171
C    -1.32731   1.67621  -1.75358
H    -4.38038  -1.36407   1.08394
H    -5.14600  -0.36941  -0.20278
H    -3.94011   0.36367   0.91091
H    -2.07305  -0.80882  -2.96103
H    -1.98108  -2.56795  -2.76375
H    -0.52261  -1.64511  -3.21514
H     0.36553  -1.33707   1.12052
H     2.70097  -2.03925  -0.85384
H     2.93331  -1.28244   0.76298
H     2.45211  -2.98038   0.65212
H    -2.28139   1.34900  -1.37502
H    -1.30625   2.79312  -1.76837
H    -1.13698   1.30565  -2.73565
26

C    -4.21903  -0.54780   0.36643
O    -3.24290  -0.91497  -0.60115
C    -1.97433  -1.16885  -0.12331
O    -1.72165  -1.08495   1.09538
C    -1.09081  -1.51090  -1.16029
C    -1.43286  -1.65566  -2.60775
O     0.22366  -1.73095  -0.87521
C     0.89150  -1.72296   0.21557
C     2.32980  -2.04051   0.16276
C     0.69298   1.33061  -0.04615
Br    2.11650   1.48251   1.12115
C    -0.22425   1.42571  -0.82288
C    -1.33284   1.67402  -1.75954
H    -4.38032  -1.36369   1.08456
H    -5.14609  -0.36938  -0.20228
H    -3.93971   0.36385   0.91071
H    -2.07273  -0.80953  -2.96109
H    -1.98098  -2.56899  -2.76654
H    -0.52217  -1.64543  -3.21495
H     0.36560  -1.33838   1.12031
H     2.70043  -2.04148  -0.85469
H     2.93265  -1.28280   0.76143
H     2.45489  -2.98177   0.65242
H    -2.28182   1.34574  -1.37582
H    -1.31165   2.79245  -1.77287
H    -1.13711   1.30290  -2.73638
26

C    -4.21950  -0.54784   0.36585
O    -3.24117  -0.91253  -0.60108
C    -1.97441  -1.16538  -0.12212
O    -1.72384  -1.08803   1.09610
C    -1.08620  -1.49829  -1.16090
C    -1.43257  -1.65132  -2.60607
O     0.22383  -1.73082  -0.87557
C     0.89318  -1.70453   0.21440
C     2.32901  -2.03348   0.16475
C     0.69479   1.29688  -0.04634
Br    2.11167   1.48431   1.11616
C    -0.22490   1.40345  -0.82171
C    -1.32731   1.67621  -1.75358
H    -4.38038  -1.36407   1.08394
H    -5.14600  -0.36941  -0.20278
H    -3.94011   0.36367   0.91091
H    -2.07305  -0.80882  -2.96103
H    -1.98108  -2.56795  -2.76375
H    -0.52261  -1.64511  -3.21514
H     0.36553  -1.33707   1.12052
H     2.70097  -2.03925  -0.85384
H     2.93331  -1.28244   0.76298
H     2.45211  -2.98038   0.65212
H    -2.28139   1.34900  -1.37502
H    -1.30625   2.79312  -1.76837
H    -1.13698   1.30565  -2.73565
26

C    -4.21997  -0.54787   0.36526
O    -3.23945  -0.91010  -0.60101
C    -1.97449  -1.16192  -0.12093
O    -1.72604  -1.09112   1.09682
C    -1.08159  -1.48568  -1.16151
C    -1.43229  -1.64698  -2.60439
O     0.22400  -1.73069  -0.87593
C     0.89486  -1.68610   0.21323
C     2.32822  -2.02644   0.16675
C     0.69659   1.26315  -0.04653
Br    2.10684   1.48611   1.11117
C    -0.22556   1.38119  -0.82054
C    -1.32177   1.67840  -1.74761
H    -4.38045  -1.36445   1.08333
H    -5.14592  -0.36944  -0.20328
H    -3.94050   0.36350   0.91110
H    -2.07337  -0.80810  -2.96098
H    -1.98119  -2.56692  -2.76096
H    -0.52304  -1.64480  -3.21532
H     0.36547  -1.33575   1.12073
H     2.70152  -2.03703  -0.85300
H     2.93398  -1.28209   0.76453
H     2.44933  -2.97899   0.65181
H    -2.28097   1.35225  -1.37423
H    -1.30084   2.79379  -1.76387
H    -1.13686   1.30839  -2.73492
26

C    -4.22044  -0.54791   0.36468
O    -3.23772  -0.90767  -0.60094
C    -1.97457  -1.15845  -0.11974
O    -1.72824  -1.09420   1.09754
C    -1.07697  -1.47308  -1.16212
C    -1.43200  -1.64263  -2.60270
O     0.22417  -1.73055  -0.87629
C     0.89653  -1.66766   0.21207
C     2.32743  -2.01941   0.16874
C     0.69839   1.22942  -0.04672
Br    2.10200   1.48792   1.10619
C    -0.22622   1.35893  -0.81937
C    -1.31624   1.68060  -1.74165
H    -4.38051  -1.36483   1.08271
H    -5.14583  -0.36947  -0.20378
H    -3.94089   0.36333   0.91130
H    -2.07370  -0.80739  -2.96092
H    -1.98129  -2.56589  -2.75818
H    -0.52348  -1.64449  -3.21551
H     0.36540  -1.33444   1.12094
H     2.70206  -2.03480  -0.85216
H     2.93465  -1.28173   0.76608
H     2.44654  -2.97760   0.65151
H    -2.28054   1.35550  -1.37343
H    -1.29544   2.79446  -1.75937
H    -1.13673   1.31114  -2.73418
26

C    -4.22091  -0.54794   0.36409
O    -3.23600  -0.90524  -0.60087
C    -1.97465  -1.15498  -0.11854
O    -1.73044  -1.09729   1.09826
C    -1.07236  -1.46047  -1.16273
C    -1.43172  -1.63829  -2.60102
O     0.22434  -1.73042  -0.87665
C     0.89821  -1.64923   0.21090
C     2.32665  -2.01238   0.17074
C     0.70020   1.19569  -0.04691
Br    2.09717   1.48972   1.10120
C    -0.22688   1.33667  -0.81821
C    -1.31070   1.68279  -1.73568
H    -4.38058  -1.36521   1.08210
H    -5.14575  -0.36949  -0.20428
H    -3.94129   0.36316   0.91149
H    -2.07402  -0.80668  -2.96086
H    -1.98140  -2.56485  -2.75539
H    -0.52392  -1.64418  -3.21569
H     0.36534  -1.33313   1.12115
H     2.70261  -2.03257  -0.85132
H     2.93532  -1.28138   0.76763
H     2.44376  -2.97621   0.65120
H    -2.28012   1.35876  -1.37264
H    -1.29003   2.79512  -1.75487
H    -1.13660   1.31389  -2.73345
26

C    -4.22138  -0.54797   0.36350
O    -3.23427  -0.90280  -0.60080
C    -1.97474  -1.15151  -0.11735
O    -1.73263  -1.10038   1.09898
C    -1.06774  -1.44786  -1.16334
C    -1.43143  -1.63394  -2.59934
O     0.22452  -1.73029  -0.87701
C     0.89988  -1.63080   0.20973
C     2.32586  -2.00535   0.17273
C     0.70200   1.16195  -0.04709
Br    2.09234   1.49153   1.09621
C    -0.22753   1.31441  -0.81704
C    -1.30517   1.68498  -1.72972
H    -4.38064  -1.36559   1.08148
H    -5.14566  -0.36952  -0.20478
H    -3.94168   0.36299   0.91169
H    -2.07435  -0.80596  -2.96081
H    -1.98150  -2.56382  -2.75260
H    -0.52436  -1.64386  -3.21588
H     0.36527  -1.33182   1.12136
H     2.70315  -2.03034  -0.85048
H     2.93599  -1.28102   0.76917
H     2.44098  -2.97482   0.65090
H    -2.27970   1.36201  -1.37184
H    -1.28463   2.79579  -1.75037
H    -1.13647   1.31663  -2.73272
26

C    -4.22185  -0.54801   0.36292
O    -3.23254  -0.90037  -0.60073
C    -1.97482  -1.14804  -0.11616
O    -1.73483  -1.10346   1.09970
C    -1.06313  -1.43525  -1.16395
C    -1.43114  -1.62960  -2.59766
O     0.22469  -1.73015  -0.87737
C     0.90156  -1.61236   0.20856
C     2.32507  -1.99832   0.17473
C     0.70381   1.12822  -0.04728
Br    2.08751   1.49333   1.09123
C    -0.22819   1.29215  -0.81587
C    -1.29963   1.68718  -1.72375
H    -4.38071  -1.36597   1.08086
H    -5.14558  -0.36955  -0.20528
H    -3.94208   0.36282   0.91188
H    -2.07467  -0.80525  -2.96075
H    -1.98161  -2.56279  -2.74981
H    -0.52479  -1.64355  -3.21606
H     0.36520  -1.33051   1.12158
H     2.70370  -2.02811  -0.84964
H     2.93666  -1.28067   0.77072
H     2.43820  -2.97342   0.65059
H    -2.27927   1.36527  -1.37104
H    -1.27923   2.79646  -1.74587
H    -1.13634   1.31938  -2.73198
26

C    -4.22232  -0.54804   0.36233
O    -3.23082  -0.89794  -0.60066
C    -1.97490  -1.14457  -0.11497
O    -1.73703  -1.10655   1.10042
C    -1.05852  -1.42265  -1.16456
C    -1.43086  -1.62526  -2.59598
O     0.22486  -1.73002  -0.87773
C     0.90324  -1.59393   0.20740
C     2.32428  -1.99129   0.17672
C     0.70561   1.09449  -0.04747
Br    2.08267   1.49514   1.08624
C    -0.22885   1.26989  -0.81470
C    -1.29410   1.68937  -1.71779
H    -4.38077  -1.36635   1.08025
H    -5.14549  -0.36958  -0.20578
H    -3.94247   0.36265   0.91208
H    -2.07500  -0.80453  -2.96069
H    -1.98171  -2.56175  -2.74703
H    -0.52523  -1.64324  -3.21624
H     0.36514  -1.32919   1.12179
H     2.70424  -2.02588  -0.84879
H     2.93732  -1.28031   0.77227
H     2.43542  -2.97203   0.65029
H    -2.27885   1.36852  -1.37025
H    -1.27382   2.79713  -1.74137
H    -1.13622   1.32213  -2.73125
26

C    -4.22279  -0.54807   0.36174
O    -3.22909  -0.89550  -0.60059
C    -1.97498  -1.14110  -0.11378
O    -1.73923  -1.10963   1.10114
C    -1.05390  -1.41004  -1.16517
C    -1.43057  -1.62091  -2.59430
O     0.22503  -1.72989  -0.87809
C     0.90491  -1.57550   0.20623
C     2.32349  -1.98426   0.17872
C     0.70741   1.06076  -0.04766
Br    2.07784   1.49694   1.08125
C    -0.22951   1.24763  -0.81353
C    -1.28857   1.69156  -1.71183
H    -4.38084  -1.36673   1.07963
H    -5.14541  -0.36961  -0.20627
H    -3.94287   0.36248   0.91227
H    -2.07532  -0.80382  -2.96064
H    -1.98182  -2.56072  -2.74424
H    -0.52567  -1.64293  -3.21643
H     0.36507  -1.32788   1.12200
H     2.70479  -2.02365  -0.84795
H     2.93799  -1.27995   0.77382
H     2.43264  -2.97064   0.64998
H    -2.27842   1.37178  -1.36945
H    -1.26842   2.79780  -1.73687
H    -1.13609   1.32487  -2.73052
26

C    -4.22326  -0.54811   0.36116
O    -3.22737  -0.89307  -0.60052
C    -1.97506  -1.13763  -0.11259
O    -1.74142  -1.11272   1.10186
C    -1.04929  -1.39743  -1.16578
C    -1.43028  -1.61657  -2.59262
O     0.22520  -1.72975  -0.87844
C     0.90659  -1.55706   0.20506
C     2.32271  -1.97723   0.18071
C     0.70922   1.02703  -0.04785
Br    2.07301   1.49874   1.07627
C    -0.23016   1.22537  -0.81236
C    -1.28303   1.69375  -1.70586
H    -4.38090  -1.36711   1.07902
H    -5.14532  -0.36964  -0.20677
H    -3.94326   0.36230   0.91247
H    -2.07565  -0.80310  -2.96058
H    -1.98192  -2.55969  -2.74145
H    -0.52610  -1.64261  -3.21661
H     0.36501  -1.32657   1.12221
H     2.70533  -2.02143  -0.84711
H     2.93866  -1.27960   0.77537
H     2.42986  -2.96925   0.64968
H    -2.27800   1.37503  -1.36865
H    -1.26301   2.79846  -1.73237
H    -1.13596   1.32762  -2.72978
26

C    -4.22373  -0.54814   0.36057
O    -3.22564  -0.89064  -0.60045
C    -1.97514  -1.13416  -0.11140
O    -1.74362  -1.11580   1.10257
C    -1.04468  -1.38482  -1.16640
C    -1.43000  -1.61222  -2.59094
O     0.22538  -1.72962  -0.87880
C     0.90827  -1.53863   0.20389
C     2.32192  -1.97019   0.18270
C     0.71102   0.99329  -0.04804
Br    2.06818   1.50055   1.07128
C    -0.23082   1.20311  -0.81119
C    -1.27750   1.69595  -1.69990
H    -4.38097  -1.36748   1.07840
H    -5.14524  -0.36966  -0.20727
H    -3.94365   0.36213   0.91266
H    -2.07597  -0.80239  -2.96053
H    -1.98203  -2.55865  -2.73866
H    -0.52654  -1.64230  -3.21680
H     0.36494  -1.32526   1.12242
H     2.70588  -2.01920  -0.84627
H     2.93933  -1.27924   0.77692
H     2.42708  -2.96786   0.64937
H    -2.27757   1.37828  -1.36786
H    -1.25761   2.79913  -1.72787
H    -1.13583   1.33037  -2.72905
26

C    -4.22420  -0.54817   0.35998
O    -3.22392  -0.88820  -0.60038
C    -1.97522  -1.13069  -0.11021
O    -1.74582  -1.11889   1.10329
C    -1.04006  -1.37221  -1.16701
C    -1.42971  -1.60788  -2.58925
O     0.22555  -1.72949  -0.87916
C     0.90994  -1.52020   0.20273
C     2.32113  -1.96316   0.18470
C     0.71283   0.95956  -0.04822
Br    2.06335   1.50235   1.06629
C    -0.23148   1.18085  -0.81002
C    -1.27196   1.69814  -1.69393
H    -4.38103  -1.36786   1.07778
H    -5.14515  -0.36969  -0.20777
H    -3.94405   0.36196   0.91285
H    -2.07630  -0.80168  -2.96047
H    -1.98213  -2.55762  -2.73588
H    -0.52698  -1.64199  -3.21698
H     0.36487  -1.32394   1.12263
H     2.70642  -2.01697  -0.84543
H     2.94000  -1.27889   0.77847
H     2.42430  -2.96647   0.64907
H    -2.27715   1.38154  -1.36706
H    -1.25220   2.79980  -1.72337
H    -1.13570   1.33311  -2.72832
26

C    -4.22467  -0.54821   0.35940
O    -3.22219  -0.88577  -0.60031
C    -1.97531  -1.12722  -0.10901
O    -1.74802  -1.12197   1.10401
C    -1.03545  -1.35961  -1.16762
C    -1.42943  -1.60353  -2.58757
O     0.22572  -1.72935  -0.87952
C     0.91162  -1.50176   0.20156
C     2.32034  -1.95613   0.18669
C     0.71463   0.92583  -0.04841
Br    2.05851   1.50416   1.06130
C    -0.23214   1.15859  -0.80885
C    -1.26643   1.70033  -1.68797
H    -4.38110  -1.36824   1.07717
H    -5.14507  -0.36972  -0.20827
H    -3.94444   0.36179   0.91305
H    -2.07662  -0.80096  -2.96041
H    -1.98224  -2.55659  -2.73309
H    -0.52742  -1.64168  -3.21717
H     0.36481  -1.32263   1.12284
H     2.70696  -2.01474  -0.84458
H     2.94066  -1.27853   0.78002
H     2.42152  -2.96508   0.64876
H    -2.27673   1.38479  -1.36627
H    -1.24680   2.80047  -1.71887
H    -1.13558   1.33586  -2.72758
26

C    -4.22514  -0.54824   0.35881
O    -3.22047  -0.88334  -0.60023
C    -1.97539  -1.12376  -0.10782
O    -1.75021  -1.12506   1.10473
C    -1.03084  -1.34700  -1.16823
C    -1.42914  -1.59919  -2.58589
O     0.22589  -1.72922  -0.87988
C     0.91330  -1.48333   0.20039
C     2.31955  -1.94910   0.18869
C     0.71643   0.89210  -0.04860
Br    2.05368   1.50596   1.05632
C    -0.23279   1.13632  -0.80768
C    -1.26090   1.70253  -1.68200
H    -4.38116  -1.36862   1.07655
H    -5.14498  -0.36975  -0.20877
H    -3.94484   0.36162   0.91324
H    -2.07695  -0.80025  -2.96036
H    -1.98234  -2.55556  -2.73030
H    -0.52785  -1.64136  -3.21735
H     0.36474  -1.32132   1.12306
H     2.70751  -2.01251  -0.84374
H     2.94133  -1.27818   0.78157
H     2.41874  -2.96369   0.64846
H    -2.27630   1.38805  -1.36547
H    -1.24139   2.80114  -1.71437
H    -1.13545   1.33861  -2.72685
26

C    -4.22561  -0.54827   0.35823
O    -3.21874  -0.88090  -0.60016
C    -1.97547  -1.12029  -0.10663
O    -1.75241  -1.12814   1.10545
C    -1.02622  -1.33439  -1.16884
C    -1.42885  -1.59485  -2.58421
O     0.22606  -1.72909  -0.88024
C     0.91497  -1.46490   0.19923
C     2.31877  -1.94207   0.19068
C     0.71824   0.85837  -0.04879
Br    2.04885   1.50777   1.05133
C    -0.23345   1.11406  -0.80651
C    -1.25536   1.70472  -1.67604
H    -4.38123  -1.36900   1.07593
H    -5.14490  -0.36978  -0.20927
H    -3.94523   0.36145   0.91344
H    -2.07727  -0.79953  -2.96030
H    -1.98245  -2.55452  -2.72751
H    -0.52829  -1.64105  -3.21753
H     0.36467  -1.32001   1.12327
H     2.70805  -2.01028  -0.84290
H     2.94200  -1.27782   0.78312
H     2.41596  -2.96230   0.64815
H    -2.27588   1.39130  -1.36467
H    -1.23599   2.80180  -1.70987
H    -1.13532   1.34135  -2.72611
26

C    -4.22608  -0.54831   0.35764
O    -3.21702  -0.87847  -0.60009
C    -1.97555  -1.11682  -0.10544
O    -1.75461  -1.13123   1.10617
C    -1.02161  -1.32178  -1.16945
C    -1.42857  -1.59050  -2.58253
O     0.22623  -1.72895  -0.88060
C     0.91665  -1.44646   0.19806
C     2.31798  -1.93504   0.19268
C     0.72004   0.82463  -0.04898
Br    2.04402   1.50957   1.04634
C    -0.23411   1.09180  -0.80534
C    -1.24983   1.70691  -1.67007
H    -4.38129  -1.36938   1.07532
H    -5.14481  -0.36981  -0.20976
H    -3.94562   0.36128   0.91363
H    -2.07759  -0.79882  -2.96024
H    -1.98255  -2.55349  -2.72473
H    -0.52873  -1.64074  -3.21772
H     0.36461  -1.31869   1.12348
H     2.70860  -2.00806  -0.84206
H     2.94267  -1.27746   0.78467
H     2.41318  -2.96091   0.64785
H    -2.27545   1.39456  -1.36388
H    -1.23059   2.80247  -1.70537
H    -1.13519   1.34410  -2.72538
26

C    -4.22655  -0.54834   0.35705
O    -3.21529  -0.87604  -0.60002
C    -1.97563  -1.11335  -0.10425
O    -1.75681  -1.13432   1.10689
C    -1.01700  -1.30918  -1.17006
C    -1.42828  -1.58616  -2.58085
O     0.22641  -1.72882  -0.88096
C     0.91832  -1.42803   0.19689
C     2.31719  -1.92801   0.19467
C     0.72185   0.79090  -0.04917
Br    2.03919   1.51137   1.04136
C    -0.23477   1.06954  -0.80417
C    -1.24429   1.70911  -1.66411
H    -4.38136  -1.36976   1.07470
H    -5.14473  -0.36983  -0.21026
H    -3.94602   0.36111   0.91383
H    -2.07792  -0.79810  -2.96019
H    -1.98266  -2.55246  -2.72194
H    -0.52917  -1.64043  -3.21790
H     0.36454  -1.31738   1.12369
H     2.70914  -2.00583  -0.84122
H     2.94334  -1.27711   0.78622
H     2.41040  -2.95952   0.64754
H    -2.27503   1.39781  -1.36308
H    -1.22518   2.80314  -1.70087
H    -1.13506   1.34685  -2.72465
26

C    -4.22702  -0.54837   0.35647
O    -3.21356  -0.87361  -0.59995
C    -1.97571  -1.10988  -0.10306
O    -1.75901  -1.13740   1.10761
C    -1.01238  -1.29657  -1.17067
C    -1.42800  -1.58181  -2.57917
O     0.22658  -1.72869  -0.88131
C     0.92000  -1.40960   0.19572
C     2.31640  -1.92098   0.19667
C     0.72365   0.75717  -0.04935
Br    2.03435   1.51318   1.03637
C    -0.23542   1.04728  -0.80301
C    -1.23876   1.71130  -1.65814
H    -4.38142  -1.37014   1.07409
H    -5.14464  -0.36986  -0.21076
H    -3.94641   0.36093   0.91402
H    -2.07824  -0.79739  -2.96013
H    -1.98276  -2.55142  -2.71915
H    -0.52960  -1.64012  -3.21809
H     0.36448  -1.31607   1.12390
H     2.70969  -2.00360  -0.84038
H     2.94401  -1.27675   0.78777
H     2.40762  -2.95813   0.64724
H    -2.27461   1.40106  -1.36228
H    -1.21978   2.80381  -1.69637
H    -1.13494   1.34959  -2.72391
26

C    -4.22749  -0.54841   0.35588
O    -3.21184  -0.87117  -0.59988
C    -1.97579  -1.10641  -0.10187
O    -1.76120  -1.14049   1.10833
C    -1.00777  -1.28396  -1.17128
C    -1.42771  -1.57747  -2.57749
O     0.22675  -1.72855  -0.88167
C     0.92168  -1.39116   0.19456
C     2.31561  -1.91394   0.19866
C     0.72545   0.72344  -0.04954
Br    2.02952   1.51498   1.03138
C    -0.23608   1.02502  -0.80184
C    -1.23323   1.71349  -1.65218
H    -4.38149  -1.37052   1.07347
H    -5.14456  -0.36989  -0.21126
H    -3.94681   0.36076   0.91422
H    -2.07857  -0.79668  -2.96007
H    -1.98287  -2.55039  -2.71636
H    -0.53004  -1.63980  -3.21827
H     0.36441  -1.31476   1.12411
H     2.71023  -2.00137  -0.83953
H     2.94467  -1.27640   0.78932
H     2.40483  -2.95674   0.64693
H    -2.27418   1.40432  -1.36149
H    -1.21437   2.80448  -1.69187
H    -1.13481   1.35234  -2.72318
26

C    -4.22796  -0.54844   0.35529
O    -3.21011  -0.86874  -0.59981
C    -1.97587  -1.10294  -0.10068
O    -1.76340  -1.14357   1.10905
C    -1.00315  -1.27135  -1.17189
C    -1.42742  -1.57313  -2.57581
O     0.22692  -1.72842  -0.88203
C     0.92335  -1.37273   0.19339
C     2.31482  -1.90691   0.20066
C     0.72726   0.68970  -0.04973
Br    2.02469   1.51679   1.02639
C    -0.23674   1.00276  -0.80067
C    -1.22769   1.71569  -1.64622
H    -4.38156  -1.37090   1.07285
H    -5.14447  -0.36992  -0.21176
H    -3.94720   0.36059   0.91441
H    -2.07889  -0.79596  -2.96002
H    -1.98297  -2.54936  -2.71358
H    -0.53048  -1.63949  -3.21846
H     0.36434  -1.31344   1.12432
H     2.71078  -1.99914  -0.83869
H     2.94534  -1.27604   0.79086
H     2.40205  -2.95535   0.64662
H    -2.27376   1.40757  -1.36069
H    -1.20897   2.80514  -1.68737
H    -1.13468   1.35508  -2.72245
