13

C -1.376574151 1.662888692 1.461301742
C -1.569180669 -0.888715879 0.836639505
O -3.360114595 -1.544889506 -0.923566624
C 1.489786831 -2.217938085 -1.028975018
O 1.046956499 -4.328387453 -1.582540107
C 3.252774693 -0.301529085 -1.285802706
C 3.104830133 2.028418567 -0.705869380
H -2.633788325 2.964695149 0.499131377
H 0.975113647 2.381949589 0.359149215
H -0.885821971 2.139745489 3.390197977
H -1.251429949 -2.278205684 2.322462333
H -3.002949347 -3.234604523 -1.500265948
H 4.312867623 3.654352153 -0.922597553

