11

O 4.766431600 0.721541125 -0.321412518
C 2.746103668 -0.212379214 0.080003483
N 1.627014358 -1.812355862 1.549066519
C -2.224098781 -0.827818793 -0.308518218
C -1.497249888 1.790108985 -0.646728531
O 0.664279683 0.669428582 -1.791784227
H 2.785500093 -2.497360681 2.907569522
H -2.752229952 -1.848801365 -1.998492316
H -2.503360581 -1.731356077 1.485087970
H -1.076107244 2.841350665 1.069486154
H -2.536282973 2.907644525 -2.024277856

