11

N 1.017104892 1.618837872 -0.635576028
C 2.486706462 -0.377535740 -1.163013670
O 1.746868121 -2.571608342 -0.911903423
C -1.864475321 -1.489459719 0.206460799
C -1.003787728 0.912381864 1.223972757
O -0.673255051 1.516059126 3.479932718
H 1.848091187 3.318322565 -0.399607363
H 4.397445453 0.011545603 -1.849641878
H -2.720800953 -2.860918382 1.472370472
H -2.334615030 -1.574570716 -1.779020450
H -3.032449143 1.533394926 0.331762000

