9

O -5.705832163 0.079043124 -2.358540607
C -3.677161204 0.024828337 -1.514177753
C -1.419077682 0.043949549 -0.467732689
N 0.494509882 1.784430585 -0.965942201
C 2.423705790 0.861589748 0.118906916
N 2.069219077 -1.495409106 1.257998240
O -0.598355019 -1.876403877 1.165848032
H 2.550158533 -1.550254949 3.114621484
H 4.284424996 1.708397454 0.115344404

