11

N 4.941351887 -1.688420139 -0.074558899
C 3.164615134 -0.480202066 0.202041410
C 0.888965814 1.115980749 0.516547112
C -1.137556716 0.524914592 -1.492874946
C -2.135217101 -1.285394790 1.798473083
O -0.449111026 0.550420283 2.730043963
H 1.502218470 3.087253355 0.541937019
H -2.134667171 2.201513039 -2.156435796
H -0.588273972 -0.703044807 -3.039273700
H -3.025818548 -0.320704079 -0.279715182
H -1.011859485 -2.933594357 1.160884874

