15

C -2.891073271 -1.447183541 0.301577027
N -0.876158800 0.375027318 0.682701055
C -1.605823517 2.879071545 -0.164400390
C 1.431259254 -0.430711008 -0.424326361
C 3.450247256 -0.911337034 0.981222168
O 5.736180957 -1.693583419 0.139026206
H -3.374799846 -1.703255925 -1.711658536
H -4.589670265 -0.819932437 1.291056599
H -2.326750481 -3.274242549 1.066708389
H -3.309524775 3.480551150 0.832333405
H -0.100216088 4.220639086 0.254258719
H -1.997850622 2.954732626 -2.212307193
H 1.503282537 -0.653646383 -2.486596764
H 5.693300954 -1.852713722 -1.669456322
H 3.401576812 -0.699453760 3.016371165

