9

C -1.921043082 -0.447382418 0.264642141
O -1.186476415 1.802655217 -1.044212522
C 1.337327828 1.790781954 -1.058111193
O 2.764511793 3.263012322 -1.924956610
C 1.814356061 -0.683182784 0.374297071
N 3.035276797 -2.340489924 1.335676887
H 0.476882876 -2.323854646 1.355414226
H -2.962557661 0.034823098 1.972027987
H -2.977318840 -1.686494055 -0.992821382

