14

C -3.624485901 -0.576252158 -0.473674971
C -0.911352228 0.116750644 -0.420969810
C 0.939783497 -1.422910444 -1.463237539
C 3.311694294 -1.040961721 -0.528630437
N 5.533176939 -0.979565879 -0.207011598
O 1.219346028 0.940936684 2.780919491
C -0.012828236 2.363241981 0.997813547
H -4.340025652 -0.516807422 1.461445304
H -4.678451602 0.845692238 -1.541012355
H -3.974718443 -2.440381017 -1.272307738
H 0.563314999 -3.154819493 -2.477735082
H 6.472111666 -1.231498006 1.428641378
H -1.606418951 3.490353084 1.734076905
H 1.190939513 3.634915129 -0.146036145

