22

C    -2.84709  -0.14662  -1.35627
C    -2.05977  -0.33196  -0.10588
C    -1.66482   0.74744   0.72792
N    -1.39988   1.64801   1.42513
O    -1.65043  -1.52471   0.18799
N    -0.93894  -1.95170   1.22778
C     1.28340  -1.16481  -0.48342
C     2.01467  -0.61914   0.69139
O     2.55700  -1.35215   1.51711
C     2.09508   0.85826   0.81773
C     1.48865   1.66593  -0.06895
C     0.70632   1.11050  -1.20194
O     0.12745   1.85276  -1.99498
C     0.67062  -0.37021  -1.34994
H    -3.83038   0.15999  -1.06044
H    -2.39638   0.65368  -1.99997
H    -2.85826  -1.08193  -1.92771
H    -0.54972  -1.03212   1.67007
H     1.15984  -2.26650  -0.50712
H     2.68764   1.22731   1.64012
H     1.55743   2.74095  -0.01753
H    -0.02705  -0.74609  -2.12702
22

C    -2.84223  -0.14603  -1.35696
C    -2.04276  -0.33065  -0.11555
C    -1.65997   0.74843   0.72447
N    -1.40169   1.64751   1.42493
O    -1.64733  -1.52635   0.18815
N    -0.91729  -1.94382   1.21585
C     1.26385  -1.16737  -0.46925
C     2.00904  -0.62119   0.69471
O     2.55787  -1.35396   1.51558
C     2.09377   0.85607   0.81710
C     1.48763   1.66406  -0.06962
C     0.70034   1.11005  -1.19960
O     0.12863   1.85302  -1.99670
C     0.64916  -0.36867  -1.33782
H    -3.82860   0.15789  -1.05760
H    -2.39791   0.65546  -1.99985
H    -2.85654  -1.08102  -1.92913
H    -0.54702  -1.03043   1.66856
H     1.15876  -2.26634  -0.50718
H     2.68852   1.22663   1.63902
H     1.55857   2.74034  -0.01850
H    -0.02973  -0.74589  -2.12542
22

C    -2.83737  -0.14544  -1.35766
C    -2.02575  -0.32934  -0.12522
C    -1.65512   0.74943   0.72102
N    -1.40351   1.64700   1.42472
O    -1.64424  -1.52798   0.18831
N    -0.89563  -1.93594   1.20393
C     1.24431  -1.16993  -0.45508
C     2.00341  -0.62324   0.69803
O     2.55873  -1.35577   1.51404
C     2.09246   0.85388   0.81647
C     1.48662   1.66219  -0.07028
C     0.69437   1.10959  -1.19726
O     0.12981   1.85328  -1.99843
C     0.62771  -0.36712  -1.32570
H    -3.82683   0.15579  -1.05476
H    -2.39944   0.65723  -1.99973
H    -2.85482  -1.08011  -1.93054
H    -0.54432  -1.02874   1.66705
H     1.15768  -2.26617  -0.50725
H     2.68940   1.22595   1.63792
H     1.55971   2.73972  -0.01947
H    -0.03242  -0.74568  -2.12382
22

C    -2.83250  -0.14486  -1.35835
C    -2.00874  -0.32803  -0.13489
C    -1.65026   0.75043   0.71756
N    -1.40532   1.64650   1.42451
O    -1.64114  -1.52962   0.18846
N    -0.87398  -1.92806   1.19200
C     1.22477  -1.17248  -0.44091
C     1.99778  -0.62529   0.70134
O     2.55960  -1.35757   1.51250
C     2.09115   0.85169   0.81583
C     1.48561   1.66032  -0.07095
C     0.68839   1.10914  -1.19492
O     0.13099   1.85353  -2.00016
C     0.60625  -0.36557  -1.31357
H    -3.82505   0.15369  -1.05192
H    -2.40098   0.65901  -1.99961
H    -2.85310  -1.07920  -1.93196
H    -0.54161  -1.02704   1.66555
H     1.15660  -2.26601  -0.50732
H     2.69028   1.22527   1.63681
H     1.56085   2.73910  -0.02044
H    -0.03511  -0.74547  -2.12222
22

C    -2.82764  -0.14427  -1.35905
C    -1.99173  -0.32672  -0.14456
C    -1.64541   0.75142   0.71411
N    -1.40714   1.64600   1.42430
O    -1.63804  -1.53126   0.18862
N    -0.85233  -1.92018   1.18007
C     1.20523  -1.17504  -0.42673
C     1.99215  -0.62734   0.70466
O     2.56047  -1.35938   1.51096
C     2.08985   0.84950   0.81520
C     1.48460   1.65844  -0.07161
C     0.68241   1.10868  -1.19258
O     0.13217   1.85379  -2.00188
C     0.58479  -0.36402  -1.30145
H    -3.82327   0.15158  -1.04908
H    -2.40251   0.66079  -1.99949
H    -2.85139  -1.07828  -1.93337
H    -0.53891  -1.02535   1.66404
H     1.15552  -2.26584  -0.50739
H     2.69117   1.22459   1.63571
H     1.56199   2.73848  -0.02142
H    -0.03779  -0.74526  -2.12062
22

C    -2.82278  -0.14369  -1.35974
C    -1.97473  -0.32541  -0.15423
C    -1.64056   0.75242   0.71066
N    -1.40895   1.64550   1.42409
O    -1.63494  -1.53290   0.18877
N    -0.83068  -1.91230   1.16815
C     1.18569  -1.17760  -0.41256
C     1.98652  -0.62940   0.70797
O     2.56134  -1.36119   1.50943
C     2.08854   0.84731   0.81457
C     1.48359   1.65657  -0.07227
C     0.67643   1.10823  -1.19024
O     0.13335   1.85405  -2.00361
C     0.56334  -0.36248  -1.28932
H    -3.82150   0.14948  -1.04624
H    -2.40404   0.66256  -1.99937
H    -2.84967  -1.07737  -1.93478
H    -0.53620  -1.02366   1.66253
H     1.15444  -2.26567  -0.50746
H     2.69205   1.22392   1.63461
H     1.56313   2.73786  -0.02239
H    -0.04048  -0.74505  -2.11902
22

C    -2.81792  -0.14310  -1.36043
C    -1.95772  -0.32410  -0.16391
C    -1.63571   0.75341   0.70721
N    -1.41077   1.64499   1.42389
O    -1.63185  -1.53453   0.18893
N    -0.80903  -1.90441   1.15622
C     1.16615  -1.18015  -0.39839
C     1.98089  -0.63145   0.71129
O     2.56220  -1.36300   1.50789
C     2.08723   0.84512   0.81394
C     1.48258   1.65470  -0.07294
C     0.67045   1.10777  -1.18789
O     0.13453   1.85431  -2.00534
C     0.54188  -0.36093  -1.27720
H    -3.81972   0.14738  -1.04340
H    -2.40557   0.66434  -1.99925
H    -2.84795  -1.07646  -1.93620
H    -0.53350  -1.02196   1.66103
H     1.15336  -2.26551  -0.50753
H     2.69293   1.22324   1.63351
H     1.56427   2.73725  -0.02336
H    -0.04316  -0.74484  -2.11743
22

C    -2.81306  -0.14252  -1.36113
C    -1.94071  -0.32279  -0.17358
C    -1.63086   0.75441   0.70376
N    -1.41258   1.64449   1.42368
O    -1.62875  -1.53617   0.18908
N    -0.78737  -1.89653   1.14429
C     1.14661  -1.18271  -0.38422
C     1.97526  -0.63350   0.71461
O     2.56307  -1.36480   1.50635
C     2.08592   0.84293   0.81330
C     1.48157   1.65283  -0.07360
C     0.66447   1.10732  -1.18555
O     0.13571   1.85457  -2.00707
C     0.52042  -0.35938  -1.26507
H    -3.81794   0.14528  -1.04056
H    -2.40710   0.66612  -1.99913
H    -2.84623  -1.07555  -1.93761
H    -0.53080  -1.02027   1.65952
H     1.15228  -2.26534  -0.50760
H     2.69381   1.22256   1.63240
H     1.56541   2.73663  -0.02433
H    -0.04585  -0.74464  -2.11583
22

C    -2.80820  -0.14193  -1.36182
C    -1.92370  -0.32148  -0.18325
C    -1.62600   0.75541   0.70031
N    -1.41440   1.64399   1.42347
O    -1.62565  -1.53781   0.18924
N    -0.76572  -1.88865   1.13237
C     1.12707  -1.18527  -0.37005
C     1.96963  -0.63555   0.71792
O     2.56394  -1.36661   1.50481
C     2.08462   0.84074   0.81267
C     1.48055   1.65096  -0.07426
C     0.65849   1.10686  -1.18321
O     0.13688   1.85483  -2.00879
C     0.49897  -0.35783  -1.25295
H    -3.81617   0.14318  -1.03772
H    -2.40863   0.66790  -1.99902
H    -2.84451  -1.07464  -1.93903
H    -0.52809  -1.01858   1.65801
H     1.15120  -2.26518  -0.50767
H     2.69469   1.22188   1.63130
H     1.56654   2.73601  -0.02530
H    -0.04854  -0.74443  -2.11423
22

C    -2.80333  -0.14134  -1.36252
C    -1.90670  -0.32017  -0.19292
C    -1.62115   0.75640   0.69686
N    -1.41621   1.64349   1.42326
O    -1.62256  -1.53945   0.18940
N    -0.74407  -1.88077   1.12044
C     1.10753  -1.18782  -0.35588
C     1.96400  -0.63760   0.72124
O     2.56480  -1.36842   1.50328
C     2.08331   0.83855   0.81204
C     1.47954   1.64909  -0.07493
C     0.65251   1.10641  -1.18087
O     0.13806   1.85509  -2.01052
C     0.47751  -0.35629  -1.24082
H    -3.81439   0.14108  -1.03489
H    -2.41016   0.66967  -1.99890
H    -2.84279  -1.07373  -1.94044
H    -0.52539  -1.01689   1.65650
H     1.15012  -2.26501  -0.50774
H     2.69558   1.22120   1.63020
H     1.56768   2.73539  -0.02627
H    -0.05122  -0.74422  -2.11263
22

C    -2.79847  -0.14076  -1.36321
C    -1.88969  -0.31886  -0.20259
C    -1.61630   0.75740   0.69340
N    -1.41803   1.64299   1.42305
O    -1.61946  -1.54109   0.18955
N    -0.72242  -1.87289   1.10852
C     1.08799  -1.19038  -0.34171
C     1.95837  -0.63966   0.72456
O     2.56567  -1.37022   1.50174
C     2.08200   0.83637   0.81141
C     1.47853   1.64722  -0.07559
C     0.64653   1.10596  -1.17853
O     0.13924   1.85535  -2.01225
C     0.45605  -0.35474  -1.22870
H    -3.81261   0.13898  -1.03205
H    -2.41169   0.67145  -1.99878
H    -2.84107  -1.07282  -1.94185
H    -0.52269  -1.01519   1.65500
H     1.14904  -2.26485  -0.50781
H     2.69646   1.22052   1.62910
H     1.56882   2.73477  -0.02724
H    -0.05391  -0.74401  -2.11103
22

C    -2.79361  -0.14017  -1.36391
C    -1.87268  -0.31755  -0.21227
C    -1.61145   0.75840   0.68995
N    -1.41984   1.64248   1.42284
O    -1.61636  -1.54272   0.18971
N    -0.70076  -1.86501   1.09659
C     1.06845  -1.19294  -0.32754
C     1.95274  -0.64171   0.72787
O     2.56654  -1.37203   1.50020
C     2.08069   0.83418   0.81077
C     1.47752   1.64535  -0.07625
C     0.64055   1.10550  -1.17619
O     0.14042   1.85561  -2.01397
C     0.43459  -0.35319  -1.21657
H    -3.81083   0.13688  -1.02921
H    -2.41322   0.67323  -1.99866
H    -2.83936  -1.07191  -1.94327
H    -0.51998  -1.01350   1.65349
H     1.14796  -2.26468  -0.50788
H     2.69734   1.21984   1.62799
H     1.56996   2.73416  -0.02821
H    -0.05660  -0.74380  -2.10943
22

C    -2.78875  -0.13959  -1.36460
C    -1.85567  -0.31624  -0.22194
C    -1.60660   0.75939   0.68650
N    -1.42166   1.64198   1.42264
O    -1.61326  -1.54436   0.18986
N    -0.67911  -1.85713   1.08466
C     1.04891  -1.19549  -0.31336
C     1.94711  -0.64376   0.73119
O     2.56740  -1.37384   1.49866
C     2.07939   0.83199   0.81014
C     1.47651   1.64347  -0.07692
C     0.63458   1.10505  -1.17385
O     0.14160   1.85587  -2.01570
C     0.41314  -0.35164  -1.20445
H    -3.80906   0.13477  -1.02637
H    -2.41475   0.67500  -1.99854
H    -2.83764  -1.07100  -1.94468
H    -0.51728  -1.01181   1.65198
H     1.14688  -2.26452  -0.50795
H     2.69822   1.21916   1.62689
H     1.57110   2.73354  -0.02918
H    -0.05928  -0.74359  -2.10783
22

C    -2.78389  -0.13900  -1.36530
C    -1.83867  -0.31493  -0.23161
C    -1.60174   0.76039   0.68305
N    -1.42347   1.64148   1.42243
O    -1.61017  -1.54600   0.19002
N    -0.65746  -1.84925   1.07274
C     1.02937  -1.19805  -0.29919
C     1.94148  -0.64581   0.73450
O     2.56827  -1.37564   1.49713
C     2.07808   0.82980   0.80951
C     1.47550   1.64160  -0.07758
C     0.62860   1.10459  -1.17150
O     0.14278   1.85613  -2.01743
C     0.39168  -0.35010  -1.19233
H    -3.80728   0.13267  -1.02353
H    -2.41628   0.67678  -1.99842
H    -2.83592  -1.07008  -1.94610
H    -0.51457  -1.01012   1.65048
H     1.14580  -2.26435  -0.50802
H     2.69910   1.21848   1.62579
H     1.57224   2.73292  -0.03015
H    -0.06197  -0.74339  -2.10623
22

C    -2.77902  -0.13841  -1.36599
C    -1.82166  -0.31362  -0.24128
C    -1.59689   0.76139   0.67960
N    -1.42529   1.64098   1.42222
O    -1.60707  -1.54764   0.19017
N    -0.63581  -1.84137   1.06081
C     1.00982  -1.20061  -0.28502
C     1.93585  -0.64786   0.73782
O     2.56914  -1.37745   1.49559
C     2.07677   0.82761   0.80887
C     1.47448   1.63973  -0.07824
C     0.62262   1.10414  -1.16916
O     0.14396   1.85639  -2.01916
C     0.37022  -0.34855  -1.18020
H    -3.80550   0.13057  -1.02069
H    -2.41781   0.67856  -1.99830
H    -2.83420  -1.06917  -1.94751
H    -0.51187  -1.00842   1.64897
H     1.14472  -2.26418  -0.50809
H     2.69999   1.21781   1.62469
H     1.57338   2.73230  -0.03113
H    -0.06466  -0.74318  -2.10463
22

C    -2.77416  -0.13783  -1.36669
C    -1.80465  -0.31231  -0.25095
C    -1.59204   0.76238   0.67615
N    -1.42710   1.64047   1.42201
O    -1.60397  -1.54928   0.19033
N    -0.61416  -1.83349   1.04888
C     0.99028  -1.20316  -0.27085
C     1.93022  -0.64992   0.74114
O     2.57000  -1.37926   1.49405
C     2.07546   0.82542   0.80824
C     1.47347   1.63786  -0.07891
C     0.61664   1.10368  -1.16682
O     0.14514   1.85665  -2.02088
C     0.34877  -0.34700  -1.16808
H    -3.80373   0.12847  -1.01785
H    -2.41935   0.68033  -1.99818
H    -2.83248  -1.06826  -1.94892
H    -0.50917  -1.00673   1.64746
H     1.14364  -2.26402  -0.50816
H     2.70087   1.21713   1.62358
H     1.57452   2.73168  -0.03210
H    -0.06734  -0.74297  -2.10303
22

C    -2.76930  -0.13724  -1.36738
C    -1.78764  -0.31100  -0.26062
C    -1.58719   0.76338   0.67270
N    -1.42892   1.63997   1.42180
O    -1.60088  -1.55091   0.19049
N    -0.59250  -1.82561   1.03696
C     0.97074  -1.20572  -0.25668
C     1.92458  -0.65197   0.74445
O     2.57087  -1.38107   1.49251
C     2.07415   0.82323   0.80761
C     1.47246   1.63599  -0.07957
C     0.61066   1.10323  -1.16448
O     0.14632   1.85690  -2.02261
C     0.32731  -0.34545  -1.15595
H    -3.80195   0.12637  -1.01501
H    -2.42088   0.68211  -1.99807
H    -2.83076  -1.06735  -1.95034
H    -0.50646  -1.00504   1.64596
H     1.14257  -2.26385  -0.50822
H     2.70175   1.21645   1.62248
H     1.57565   2.73107  -0.03307
H    -0.07003  -0.74276  -2.10143
22

C    -2.76444  -0.13666  -1.36808
C    -1.77063  -0.30969  -0.27030
C    -1.58234   0.76438   0.66924
N    -1.43073   1.63947   1.42160
O    -1.59778  -1.55255   0.19064
N    -0.57085  -1.81773   1.02503
C     0.95120  -1.20828  -0.24251
C     1.91895  -0.65402   0.74777
O     2.57174  -1.38287   1.49098
C     2.07285   0.82104   0.80698
C     1.47145   1.63412  -0.08024
C     0.60468   1.10277  -1.16214
O     0.14750   1.85716  -2.02434
C     0.30585  -0.34391  -1.14383
H    -3.80017   0.12427  -1.01217
H    -2.42241   0.68389  -1.99795
H    -2.82904  -1.06644  -1.95175
H    -0.50376  -1.00334   1.64445
H     1.14149  -2.26369  -0.50829
H     2.70263   1.21577   1.62138
H     1.57679   2.73045  -0.03404
H    -0.07272  -0.74255  -2.09983
22

C    -2.75958  -0.13607  -1.36877
C    -1.75363  -0.30838  -0.27997
C    -1.57749   0.76537   0.66579
N    -1.43255   1.63897   1.42139
O    -1.59468  -1.55419   0.19080
N    -0.54920  -1.80985   1.01310
C     0.93166  -1.21083  -0.22834
C     1.91332  -0.65607   0.75108
O     2.57260  -1.38468   1.48944
C     2.07154   0.81885   0.80634
C     1.47044   1.63225  -0.08090
C     0.59870   1.10232  -1.15980
O     0.14867   1.85742  -2.02607
C     0.28440  -0.34236  -1.13170
H    -3.79840   0.12217  -1.00934
H    -2.42394   0.68567  -1.99783
H    -2.82733  -1.06553  -1.95316
H    -0.50105  -1.00165   1.64294
H     1.14041  -2.26352  -0.50836
H     2.70351   1.21509   1.62028
H     1.57793   2.72983  -0.03501
H    -0.07540  -0.74234  -2.09823
22

C    -2.75471  -0.13548  -1.36947
C    -1.73662  -0.30707  -0.28964
C    -1.57263   0.76637   0.66234
N    -1.43436   1.63846   1.42118
O    -1.59158  -1.55583   0.19095
N    -0.52755  -1.80196   1.00118
C     0.91212  -1.21339  -0.21416
C     1.90769  -0.65813   0.75440
O     2.57347  -1.38649   1.48790
C     2.07023   0.81666   0.80571
C     1.46943   1.63037  -0.08156
C     0.59272   1.10186  -1.15746
O     0.14985   1.85768  -2.02779
C     0.26294  -0.34081  -1.11958
H    -3.79662   0.12007  -1.00650
H    -2.42547   0.68744  -1.99771
H    -2.82561  -1.06462  -1.95458
H    -0.49835  -0.99996   1.64143
H     1.13933  -2.26336  -0.50843
H     2.70440   1.21441   1.61918
H     1.57907   2.72921  -0.03598
H    -0.07809  -0.74213  -2.09664
22

C    -2.74985  -0.13490  -1.37016
C    -1.71961  -0.30576  -0.29931
C    -1.56778   0.76736   0.65889
N    -1.43618   1.63796   1.42097
O    -1.58849  -1.55747   0.19111
N    -0.50589  -1.79408   0.98925
C     0.89258  -1.21595  -0.19999
C     1.90206  -0.66018   0.75772
O     2.57434  -1.38829   1.48636
C     2.06892   0.81447   0.80508
C     1.46841   1.62850  -0.08223
C     0.58674   1.10141  -1.15512
O     0.15103   1.85794  -2.02952
C     0.24148  -0.33926  -1.10745
H    -3.79484   0.11797  -1.00366
H    -2.42700   0.68922  -1.99759
H    -2.82389  -1.06371  -1.95599
H    -0.49565  -0.99827   1.63993
H     1.13825  -2.26319  -0.50850
H     2.70528   1.21373   1.61807
H     1.58021   2.72859  -0.03695
H    -0.08077  -0.74193  -2.09504
22

C    -2.75471  -0.13548  -1.36947
C    -1.73662  -0.30707  -0.28964
C    -1.57263   0.76637   0.66234
N    -1.43436   1.63846   1.42118
O    -1.59158  -1.55583   0.19095
N    -0.52755  -1.80196   1.00118
C     0.91212  -1.21339  -0.21416
C     1.90769  -0.65813   0.75440
O     2.57347  -1.38649   1.48790
C     2.07023   0.81666   0.80571
C     1.46943   1.63037  -0.08156
C     0.59272   1.10186  -1.15746
O     0.14985   1.85768  -2.02779
C     0.26294  -0.34081  -1.11958
H    -3.79662   0.12007  -1.00650
H    -2.42547   0.68744  -1.99771
H    -2.82561  -1.06462  -1.95458
H    -0.49835  -0.99996   1.64143
H     1.13933  -2.26336  -0.50843
H     2.70440   1.21441   1.61918
H     1.57907   2.72921  -0.03598
H    -0.07809  -0.74213  -2.09664
22

C    -2.75958  -0.13607  -1.36877
C    -1.75363  -0.30838  -0.27997
C    -1.57749   0.76537   0.66579
N    -1.43255   1.63897   1.42139
O    -1.59468  -1.55419   0.19080
N    -0.54920  -1.80985   1.01310
C     0.93166  -1.21083  -0.22834
C     1.91332  -0.65607   0.75108
O     2.57260  -1.38468   1.48944
C     2.07154   0.81885   0.80634
C     1.47044   1.63225  -0.08090
C     0.59870   1.10232  -1.15980
O     0.14867   1.85742  -2.02607
C     0.28440  -0.34236  -1.13170
H    -3.79840   0.12217  -1.00934
H    -2.42394   0.68567  -1.99783
H    -2.82733  -1.06553  -1.95316
H    -0.50105  -1.00165   1.64294
H     1.14041  -2.26352  -0.50836
H     2.70351   1.21509   1.62028
H     1.57793   2.72983  -0.03501
H    -0.07540  -0.74234  -2.09823
22

C    -2.76444  -0.13666  -1.36808
C    -1.77063  -0.30969  -0.27030
C    -1.58234   0.76438   0.66924
N    -1.43073   1.63947   1.42160
O    -1.59778  -1.55255   0.19064
N    -0.57085  -1.81773   1.02503
C     0.95120  -1.20828  -0.24251
C     1.91895  -0.65402   0.74777
O     2.57174  -1.38287   1.49098
C     2.07285   0.82104   0.80698
C     1.47145   1.63412  -0.08024
C     0.60468   1.10277  -1.16214
O     0.14750   1.85716  -2.02434
C     0.30585  -0.34391  -1.14383
H    -3.80017   0.12427  -1.01217
H    -2.42241   0.68389  -1.99795
H    -2.82904  -1.06644  -1.95175
H    -0.50376  -1.00334   1.64445
H     1.14149  -2.26369  -0.50829
H     2.70263   1.21577   1.62138
H     1.57679   2.73045  -0.03404
H    -0.07272  -0.74255  -2.09983
22

C    -2.76930  -0.13724  -1.36738
C    -1.78764  -0.31100  -0.26062
C    -1.58719   0.76338   0.67270
N    -1.42892   1.63997   1.42180
O    -1.60088  -1.55091   0.19049
N    -0.59250  -1.82561   1.03696
C     0.97074  -1.20572  -0.25668
C     1.92458  -0.65197   0.74445
O     2.57087  -1.38107   1.49251
C     2.07415   0.82323   0.80761
C     1.47246   1.63599  -0.07957
C     0.61066   1.10323  -1.16448
O     0.14632   1.85690  -2.02261
C     0.32731  -0.34545  -1.15595
H    -3.80195   0.12637  -1.01501
H    -2.42088   0.68211  -1.99807
H    -2.83076  -1.06735  -1.95034
H    -0.50646  -1.00504   1.64596
H     1.14257  -2.26385  -0.50822
H     2.70175   1.21645   1.62248
H     1.57565   2.73107  -0.03307
H    -0.07003  -0.74276  -2.10143
22

C    -2.77416  -0.13783  -1.36669
C    -1.80465  -0.31231  -0.25095
C    -1.59204   0.76238   0.67615
N    -1.42710   1.64047   1.42201
O    -1.60397  -1.54928   0.19033
N    -0.61416  -1.83349   1.04888
C     0.99028  -1.20316  -0.27085
C     1.93022  -0.64992   0.74114
O     2.57000  -1.37926   1.49405
C     2.07546   0.82542   0.80824
C     1.47347   1.63786  -0.07891
C     0.61664   1.10368  -1.16682
O     0.14514   1.85665  -2.02088
C     0.34877  -0.34700  -1.16808
H    -3.80373   0.12847  -1.01785
H    -2.41935   0.68033  -1.99818
H    -2.83248  -1.06826  -1.94892
H    -0.50917  -1.00673   1.64746
H     1.14364  -2.26402  -0.50816
H     2.70087   1.21713   1.62358
H     1.57452   2.73168  -0.03210
H    -0.06734  -0.74297  -2.10303
22

C    -2.77902  -0.13841  -1.36599
C    -1.82166  -0.31362  -0.24128
C    -1.59689   0.76139   0.67960
N    -1.42529   1.64098   1.42222
O    -1.60707  -1.54764   0.19017
N    -0.63581  -1.84137   1.06081
C     1.00982  -1.20061  -0.28502
C     1.93585  -0.64786   0.73782
O     2.56914  -1.37745   1.49559
C     2.07677   0.82761   0.80887
C     1.47448   1.63973  -0.07824
C     0.62262   1.10414  -1.16916
O     0.14396   1.85639  -2.01916
C     0.37022  -0.34855  -1.18020
H    -3.80550   0.13057  -1.02069
H    -2.41781   0.67856  -1.99830
H    -2.83420  -1.06917  -1.94751
H    -0.51187  -1.00842   1.64897
H     1.14472  -2.26418  -0.50809
H     2.69999   1.21781   1.62469
H     1.57338   2.73230  -0.03113
H    -0.06466  -0.74318  -2.10463
22

C    -2.78389  -0.13900  -1.36530
C    -1.83867  -0.31493  -0.23161
C    -1.60174   0.76039   0.68305
N    -1.42347   1.64148   1.42243
O    -1.61017  -1.54600   0.19002
N    -0.65746  -1.84925   1.07274
C     1.02937  -1.19805  -0.29919
C     1.94148  -0.64581   0.73450
O     2.56827  -1.37564   1.49713
C     2.07808   0.82980   0.80951
C     1.47550   1.64160  -0.07758
C     0.62860   1.10459  -1.17150
O     0.14278   1.85613  -2.01743
C     0.39168  -0.35010  -1.19233
H    -3.80728   0.13267  -1.02353
H    -2.41628   0.67678  -1.99842
H    -2.83592  -1.07008  -1.94610
H    -0.51457  -1.01012   1.65048
H     1.14580  -2.26435  -0.50802
H     2.69910   1.21848   1.62579
H     1.57224   2.73292  -0.03015
H    -0.06197  -0.74339  -2.10623
22

C    -2.78875  -0.13959  -1.36460
C    -1.85567  -0.31624  -0.22194
C    -1.60660   0.75939   0.68650
N    -1.42166   1.64198   1.42264
O    -1.61326  -1.54436   0.18986
N    -0.67911  -1.85713   1.08466
C     1.04891  -1.19549  -0.31336
C     1.94711  -0.64376   0.73119
O     2.56740  -1.37384   1.49866
C     2.07939   0.83199   0.81014
C     1.47651   1.64347  -0.07692
C     0.63458   1.10505  -1.17385
O     0.14160   1.85587  -2.01570
C     0.41314  -0.35164  -1.20445
H    -3.80906   0.13477  -1.02637
H    -2.41475   0.67500  -1.99854
H    -2.83764  -1.07100  -1.94468
H    -0.51728  -1.01181   1.65198
H     1.14688  -2.26452  -0.50795
H     2.69822   1.21916   1.62689
H     1.57110   2.73354  -0.02918
H    -0.05928  -0.74359  -2.10783
22

C    -2.79361  -0.14017  -1.36391
C    -1.87268  -0.31755  -0.21227
C    -1.61145   0.75840   0.68995
N    -1.41984   1.64248   1.42284
O    -1.61636  -1.54272   0.18971
N    -0.70076  -1.86501   1.09659
C     1.06845  -1.19294  -0.32754
C     1.95274  -0.64171   0.72787
O     2.56654  -1.37203   1.50020
C     2.08069   0.83418   0.81077
C     1.47752   1.64535  -0.07625
C     0.64055   1.10550  -1.17619
O     0.14042   1.85561  -2.01397
C     0.43459  -0.35319  -1.21657
H    -3.81083   0.13688  -1.02921
H    -2.41322   0.67323  -1.99866
H    -2.83936  -1.07191  -1.94327
H    -0.51998  -1.01350   1.65349
H     1.14796  -2.26468  -0.50788
H     2.69734   1.21984   1.62799
H     1.56996   2.73416  -0.02821
H    -0.05660  -0.74380  -2.10943
22

C    -2.79847  -0.14076  -1.36321
C    -1.88969  -0.31886  -0.20259
C    -1.61630   0.75740   0.69340
N    -1.41803   1.64299   1.42305
O    -1.61946  -1.54109   0.18955
N    -0.72242  -1.87289   1.10852
C     1.08799  -1.19038  -0.34171
C     1.95837  -0.63966   0.72456
O     2.56567  -1.37022   1.50174
C     2.08200   0.83637   0.81141
C     1.47853   1.64722  -0.07559
C     0.64653   1.10596  -1.17853
O     0.13924   1.85535  -2.01225
C     0.45605  -0.35474  -1.22870
H    -3.81261   0.13898  -1.03205
H    -2.41169   0.67145  -1.99878
H    -2.84107  -1.07282  -1.94185
H    -0.52269  -1.01519   1.65500
H     1.14904  -2.26485  -0.50781
H     2.69646   1.22052   1.62910
H     1.56882   2.73477  -0.02724
H    -0.05391  -0.74401  -2.11103
22

C    -2.80333  -0.14134  -1.36252
C    -1.90670  -0.32017  -0.19292
C    -1.62115   0.75640   0.69686
N    -1.41621   1.64349   1.42326
O    -1.62256  -1.53945   0.18940
N    -0.74407  -1.88077   1.12044
C     1.10753  -1.18782  -0.35588
C     1.96400  -0.63760   0.72124
O     2.56480  -1.36842   1.50328
C     2.08331   0.83855   0.81204
C     1.47954   1.64909  -0.07493
C     0.65251   1.10641  -1.18087
O     0.13806   1.85509  -2.01052
C     0.47751  -0.35629  -1.24082
H    -3.81439   0.14108  -1.03489
H    -2.41016   0.66967  -1.99890
H    -2.84279  -1.07373  -1.94044
H    -0.52539  -1.01689   1.65650
H     1.15012  -2.26501  -0.50774
H     2.69558   1.22120   1.63020
H     1.56768   2.73539  -0.02627
H    -0.05122  -0.74422  -2.11263
22

C    -2.80820  -0.14193  -1.36182
C    -1.92370  -0.32148  -0.18325
C    -1.62600   0.75541   0.70031
N    -1.41440   1.64399   1.42347
O    -1.62565  -1.53781   0.18924
N    -0.76572  -1.88865   1.13237
C     1.12707  -1.18527  -0.37005
C     1.96963  -0.63555   0.71792
O     2.56394  -1.36661   1.50481
C     2.08462   0.84074   0.81267
C     1.48055   1.65096  -0.07426
C     0.65849   1.10686  -1.18321
O     0.13688   1.85483  -2.00879
C     0.49897  -0.35783  -1.25295
H    -3.81617   0.14318  -1.03772
H    -2.40863   0.66790  -1.99902
H    -2.84451  -1.07464  -1.93903
H    -0.52809  -1.01858   1.65801
H     1.15120  -2.26518  -0.50767
H     2.69469   1.22188   1.63130
H     1.56654   2.73601  -0.02530
H    -0.04854  -0.74443  -2.11423
22

C    -2.81306  -0.14252  -1.36113
C    -1.94071  -0.32279  -0.17358
C    -1.63086   0.75441   0.70376
N    -1.41258   1.64449   1.42368
O    -1.62875  -1.53617   0.18908
N    -0.78737  -1.89653   1.14429
C     1.14661  -1.18271  -0.38422
C     1.97526  -0.63350   0.71461
O     2.56307  -1.36480   1.50635
C     2.08592   0.84293   0.81330
C     1.48157   1.65283  -0.07360
C     0.66447   1.10732  -1.18555
O     0.13571   1.85457  -2.00707
C     0.52042  -0.35938  -1.26507
H    -3.81794   0.14528  -1.04056
H    -2.40710   0.66612  -1.99913
H    -2.84623  -1.07555  -1.93761
H    -0.53080  -1.02027   1.65952
H     1.15228  -2.26534  -0.50760
H     2.69381   1.22256   1.63240
H     1.56541   2.73663  -0.02433
H    -0.04585  -0.74464  -2.11583
22

C    -2.81792  -0.14310  -1.36043
C    -1.95772  -0.32410  -0.16391
C    -1.63571   0.75341   0.70721
N    -1.41077   1.64499   1.42389
O    -1.63185  -1.53453   0.18893
N    -0.80903  -1.90441   1.15622
C     1.16615  -1.18015  -0.39839
C     1.98089  -0.63145   0.71129
O     2.56220  -1.36300   1.50789
C     2.08723   0.84512   0.81394
C     1.48258   1.65470  -0.07294
C     0.67045   1.10777  -1.18789
O     0.13453   1.85431  -2.00534
C     0.54188  -0.36093  -1.27720
H    -3.81972   0.14738  -1.04340
H    -2.40557   0.66434  -1.99925
H    -2.84795  -1.07646  -1.93620
H    -0.53350  -1.02196   1.66103
H     1.15336  -2.26551  -0.50753
H     2.69293   1.22324   1.63351
H     1.56427   2.73725  -0.02336
H    -0.04316  -0.74484  -2.11743
22

C    -2.82278  -0.14369  -1.35974
C    -1.97473  -0.32541  -0.15423
C    -1.64056   0.75242   0.71066
N    -1.40895   1.64550   1.42409
O    -1.63494  -1.53290   0.18877
N    -0.83068  -1.91230   1.16815
C     1.18569  -1.17760  -0.41256
C     1.98652  -0.62940   0.70797
O     2.56134  -1.36119   1.50943
C     2.08854   0.84731   0.81457
C     1.48359   1.65657  -0.07227
C     0.67643   1.10823  -1.19024
O     0.13335   1.85405  -2.00361
C     0.56334  -0.36248  -1.28932
H    -3.82150   0.14948  -1.04624
H    -2.40404   0.66256  -1.99937
H    -2.84967  -1.07737  -1.93478
H    -0.53620  -1.02366   1.66253
H     1.15444  -2.26567  -0.50746
H     2.69205   1.22392   1.63461
H     1.56313   2.73786  -0.02239
H    -0.04048  -0.74505  -2.11902
22

C    -2.82764  -0.14427  -1.35905
C    -1.99173  -0.32672  -0.14456
C    -1.64541   0.75142   0.71411
N    -1.40714   1.64600   1.42430
O    -1.63804  -1.53126   0.18862
N    -0.85233  -1.92018   1.18007
C     1.20523  -1.17504  -0.42673
C     1.99215  -0.62734   0.70466
O     2.56047  -1.35938   1.51096
C     2.08985   0.84950   0.81520
C     1.48460   1.65844  -0.07161
C     0.68241   1.10868  -1.19258
O     0.13217   1.85379  -2.00188
C     0.58479  -0.36402  -1.30145
H    -3.82327   0.15158  -1.04908
H    -2.40251   0.66079  -1.99949
H    -2.85139  -1.07828  -1.93337
H    -0.53891  -1.02535   1.66404
H     1.15552  -2.26584  -0.50739
H     2.69117   1.22459   1.63571
H     1.56199   2.73848  -0.02142
H    -0.03779  -0.74526  -2.12062
22

C    -2.83250  -0.14486  -1.35835
C    -2.00874  -0.32803  -0.13489
C    -1.65026   0.75043   0.71756
N    -1.40532   1.64650   1.42451
O    -1.64114  -1.52962   0.18846
N    -0.87398  -1.92806   1.19200
C     1.22477  -1.17248  -0.44091
C     1.99778  -0.62529   0.70134
O     2.55960  -1.35757   1.51250
C     2.09115   0.85169   0.81583
C     1.48561   1.66032  -0.07095
C     0.68839   1.10914  -1.19492
O     0.13099   1.85353  -2.00016
C     0.60625  -0.36557  -1.31357
H    -3.82505   0.15369  -1.05192
H    -2.40098   0.65901  -1.99961
H    -2.85310  -1.07920  -1.93196
H    -0.54161  -1.02704   1.66555
H     1.15660  -2.26601  -0.50732
H     2.69028   1.22527   1.63681
H     1.56085   2.73910  -0.02044
H    -0.03511  -0.74547  -2.12222
22

C    -2.83737  -0.14544  -1.35766
C    -2.02575  -0.32934  -0.12522
C    -1.65512   0.74943   0.72102
N    -1.40351   1.64700   1.42472
O    -1.64424  -1.52798   0.18831
N    -0.89563  -1.93594   1.20393
C     1.24431  -1.16993  -0.45508
C     2.00341  -0.62324   0.69803
O     2.55873  -1.35577   1.51404
C     2.09246   0.85388   0.81647
C     1.48662   1.66219  -0.07028
C     0.69437   1.10959  -1.19726
O     0.12981   1.85328  -1.99843
C     0.62771  -0.36712  -1.32570
H    -3.82683   0.15579  -1.05476
H    -2.39944   0.65723  -1.99973
H    -2.85482  -1.08011  -1.93054
H    -0.54432  -1.02874   1.66705
H     1.15768  -2.26617  -0.50725
H     2.68940   1.22595   1.63792
H     1.55971   2.73972  -0.01947
H    -0.03242  -0.74568  -2.12382
22

C    -2.84223  -0.14603  -1.35696
C    -2.04276  -0.33065  -0.11555
C    -1.65997   0.74843   0.72447
N    -1.40169   1.64751   1.42493
O    -1.64733  -1.52635   0.18815
N    -0.91729  -1.94382   1.21585
C     1.26385  -1.16737  -0.46925
C     2.00904  -0.62119   0.69471
O     2.55787  -1.35396   1.51558
C     2.09377   0.85607   0.81710
C     1.48763   1.66406  -0.06962
C     0.70034   1.11005  -1.19960
O     0.12863   1.85302  -1.99670
C     0.64916  -0.36867  -1.33782
H    -3.82860   0.15789  -1.05760
H    -2.39791   0.65546  -1.99985
H    -2.85654  -1.08102  -1.92913
H    -0.54702  -1.03043   1.66856
H     1.15876  -2.26634  -0.50718
H     2.68852   1.22663   1.63902
H     1.55857   2.74034  -0.01850
H    -0.02973  -0.74589  -2.12542
