15

C 3.669364969 0.747358601 -0.330406367
C 1.094965029 -0.449274619 -0.635765303
C -0.196110977 -1.491657036 1.719728158
O -1.060862105 2.277526082 1.906589852
C -1.216795748 1.387311556 -0.649587157
C -3.370717112 -0.513067238 -0.787232937
C -2.661675750 -2.362891058 0.787207350
H 5.076415791 -0.684966458 0.141643439
H 3.648980909 2.162236178 1.163662167
H 4.257561198 1.652053210 -2.088882717
H 1.034210542 -1.794034003 -2.193147014
H -0.196442057 0.331043999 3.164448176
H -1.272789769 2.960465280 -1.990426701
H -5.183347588 -0.242748379 -1.695965759
H -3.737395695 -3.942685979 1.501721925

