12

C -2.774001600 -1.825668453 -1.299453030
C -1.020318371 -0.591015152 0.589562142
C 1.701794260 -1.184105734 0.497699985
C 3.518219590 0.578320539 0.773988244
C -0.270456280 2.066314700 0.201935340
C 2.106206214 2.905563540 0.562453643
H -2.052884322 -1.585362829 -3.211239817
H -2.930251507 -3.839984429 -0.899176949
H -4.642825181 -0.968417365 -1.183291829
H -1.644427938 -0.791919552 2.547255385
H 5.524107746 0.208445806 0.906999225
H 2.702923067 4.858906293 0.482134424

