15

C 3.044989234 0.177693026 0.349004050
C 0.258851850 0.111311823 -0.370148442
C -1.646203109 1.198181889 1.593225223
C -2.686125896 -1.456922812 1.740477728
O -1.379930645 2.798735867 -3.676525576
C -0.083372638 1.052442714 -3.037932826
C -1.083941746 -2.406263863 0.055432621
H 3.305986131 -0.626102831 2.229959748
H 4.182811229 -0.928587739 -0.973368523
H 3.766596688 2.111337463 0.356302324
H -2.917725382 2.628419462 0.831881005
H -0.764765851 1.906297946 3.319018306
H -4.198559129 -2.279060559 2.845947915
H 0.995443925 -0.046182752 -4.471646060
H -0.785601914 -4.265994554 -0.747281273

