15

C 3.472288398 0.436242463 0.390039623
C 0.680929474 0.175476699 0.036305891
C -1.411213908 1.288377080 1.732264544
C -3.026151631 -0.731702995 0.580057141
O -2.912610404 0.819796244 -2.768666790
C -0.570468198 0.115238371 -2.463473621
C -0.892112095 -2.246718350 -0.100099454
H 4.056768556 -0.273805404 2.235897381
H 4.490454636 -0.636832961 -1.049245600
H 4.046870190 2.412643636 0.234801986
H -1.963803653 3.257526221 1.496062271
H -0.989415359 0.831208981 3.697628790
H -5.019106710 -1.129811635 0.782727490
H 0.640849271 -0.143709873 -4.122042153
H -0.603278587 -4.173926606 -0.682257498

