13

C 3.588743356 0.140811506 -0.036677827
C 0.773453753 0.129012850 0.022068505
C -0.731838639 -1.836743212 -0.469477360
N -3.321363002 -0.952507912 -0.174102055
C -3.317467200 1.891256727 0.583007457
C -0.798063959 2.320207323 0.641834386
H 4.335154543 0.676505210 1.811047529
H 4.362552567 -1.696707873 -0.552464475
H 4.262879832 1.542305551 -1.392909889
H -0.331159763 -3.766228683 -0.990410035
H -4.365418885 -1.084304328 -1.783769823
H -4.294110788 -1.877551167 1.203085444
H 0.003863866 4.142686504 1.112425361

