14

O 4.162243979 -0.668842805 0.048016089
C 2.268214929 0.808439538 -1.073476613
C -0.223949213 0.518719390 0.348735860
C -1.265130312 -2.109138729 0.291576124
N -0.027254991 1.028310307 2.821162267
C -2.522410116 1.342433282 -1.561786908
O -4.318279251 2.602499298 -1.515751158
H 4.149867482 -0.267041469 1.823785341
H 2.765940237 2.819403499 -1.073176770
H 2.072016495 0.178376049 -3.028348249
H 0.066315932 -3.673379465 0.365733210
H -3.067597917 -2.427262821 1.221348608
H -1.726211959 0.796090367 3.690992166
H -2.357470001 -1.061338089 -2.304741124

