13

C 3.638974355 -0.033495679 -0.159462555
C 0.831171847 0.126020015 -0.018985719
C -0.745459162 2.154505441 0.307885991
C -3.271980226 1.241838625 0.300376352
C -3.158499394 -1.315780282 -0.032020351
N -0.664687524 -1.972539970 -0.222713748
H 4.416401107 -1.214297133 1.347055552
H 4.275440842 -0.810576497 -1.964962188
H 4.454053579 1.846167597 0.033724752
H -0.145487312 4.090449788 0.530496900
H -4.975052148 2.340891755 0.510507226
H -4.632810407 -2.715984438 -0.154185873
H -0.022065538 -3.737199239 -0.477716339

