14

O 0.579125260 1.746498396 2.566160734
C 2.039316013 2.468575088 0.574778304
C 1.716855188 1.451572770 -1.695437561
C -0.373481352 -0.477741340 -1.820915659
C 0.005421303 -2.310215472 0.425552094
C -1.223869616 -0.126102558 1.895768410
N -2.561107096 0.701336211 -0.419689369
H 3.405926678 3.901320101 1.079513815
H 2.852263380 1.988256445 -3.302967955
H -0.773570633 -1.196061880 -3.705310432
H 1.911989309 -2.911102875 0.921294927
H -1.275446554 -3.920723658 0.342268670
H -2.365417584 -0.462867023 3.572037724
H -4.098827567 -0.426911430 -0.619414731

