14

O 1.738531103 1.290949527 2.796585320
C 2.334291225 2.367125179 0.767915061
C 1.689431823 1.455593729 -1.609750103
C -0.099417830 -0.685952347 -1.848047913
C -0.278529020 -2.523834157 0.426424013
C -1.919576031 -0.441148589 1.484244623
N -2.158574645 0.934699851 -0.760105692
H 3.324899209 4.195763412 0.843657646
H 2.027226944 2.598814842 -3.268798853
H -0.395345691 -1.384753869 -3.756549694
H 1.440730561 -2.939714046 1.455867305
H -1.311813936 -4.258173582 0.000181622
H -2.582909830 0.150189329 3.326452224
H -3.891133721 -0.562041324 0.025630696

