13

C 4.514999759 0.013204972 1.198922869
C 0.491237821 -0.000346236 -1.164020591
C 2.680587468 -1.010579441 -0.714680871
N -3.740666622 -0.168589762 1.958702319
C -3.738951639 0.473420992 -0.324123425
O -5.814330694 0.805885706 -1.753071600
N -1.511254932 1.033109852 -1.704621385
H 4.890379020 -1.391337108 2.661546436
H 3.768276541 1.700339889 2.109892087
H 6.309807567 0.495534264 0.303292653
H 3.147987358 -2.706410330 -1.765852763
H -5.536704094 -0.393444022 2.596748049
H -5.290088466 1.419432573 -3.383588981

