13

C 3.879527401 0.675941674 -0.001358089
C 0.876616416 -0.314352539 -0.063838444
C 2.101200197 -2.365142535 -0.663034297
N -3.780400722 -2.077510761 -0.110967723
C -3.311055019 0.259118849 0.004804326
O -5.100023101 2.074251285 0.010422444
N -0.880301646 1.290060392 0.168285422
H 3.871554912 1.628458109 1.822179905
H 3.991929256 1.959824117 -1.594534690
H 5.487255762 -0.607927559 -0.082405419
H 2.781685605 -3.789343907 0.633436386
H -5.667982668 -2.388808784 -0.230880653
H -4.244444911 3.676226205 0.107681073

