8

O -1.238511498 3.885931475 -0.236363523
C -2.334283137 1.924481344 -0.135555138
C -4.721750273 0.559438906 -0.437729734
H -6.176426219 0.804640244 0.982876604
H -5.415950027 0.202395507 -2.331127087
C -2.228187412 -0.791782037 0.379294641
H -1.320555167 -2.014387691 -0.990208307
H -2.083091594 -1.418095365 2.323813412

