12

C -3.237017307 0.155392463 0.182315882
C -0.770842152 -0.702280318 -0.918217943
C 1.494825162 0.249720485 -0.333908011
O 1.916907435 2.043097091 1.453840423
N 3.754918313 -0.339584843 -1.518734582
H -3.987927364 -1.164699740 1.586833017
H -3.108969105 2.008858881 1.092803409
H -4.671713632 0.355733497 -1.288070246
H -0.823706276 -2.189209977 -2.323993087
H 0.370834488 2.347578891 2.350528073
H 3.677349723 -1.897794083 -2.603947093
H 5.248581255 -0.341617791 -0.337489477

