12

C -4.099888762 0.194290321 0.641810386
C -1.688938132 -0.484773540 0.719947443
O 3.279280823 -2.360218060 -0.303077696
C 3.032208184 0.287834353 -0.204706321
C 0.322778242 1.266935133 -0.177682652
O -0.100737123 3.415843715 -0.822159668
H -4.631422932 2.034957757 -0.085847612
H 2.878991534 -2.929890419 -1.975582959
H -5.588795094 -1.049636773 1.293037561
H -1.099829467 -2.314890673 1.421553205
H 4.028865182 1.242059005 -1.744565792
H 3.906537918 0.902063373 1.564731498

