12

C -2.879576763 -0.794695655 -0.490737648
C -1.079039778 -0.162351133 1.358329148
O 1.620813146 -2.080341381 -0.157670150
C 2.772362112 0.280659875 -0.615177210
C 0.854373319 1.894956357 0.763844118
O 0.747665681 4.064557270 1.349577940
H -3.199202961 0.539527769 -2.014610338
H -0.719973673 -2.037039932 -1.104653711
H -4.469730765 -1.968379795 0.033506998
H -1.176088345 -0.901416274 3.269572015
H 2.976498643 0.752375484 -2.621015099
H 4.629797692 0.440372384 0.279733418

