10

N 3.743438302 -0.155243099 -0.731068765
C 1.356063291 -0.471021361 -0.167227080
N 0.263085328 1.777150132 0.022988292
C -2.294934957 1.317546836 0.276985454
C -2.611791781 -1.198547966 0.365491174
O -0.253596616 -2.373890946 0.096587190
H 2.622618003 2.283033500 -0.471415633
H 5.064345430 -1.489518036 -0.442844562
H -3.699599547 2.780301777 0.441224216
H -4.209624534 -2.423121392 0.632438289

