27

C     3.33061   0.20795  -0.00844
N     2.02111  -0.24136   0.41987
C     1.46209  -1.31747  -0.16870
O     2.02929  -2.05206  -0.99449
C     0.07012  -1.60301   0.22742
C    -0.79621  -2.34622  -0.60463
N    -1.46209  -3.04948  -1.25955
O    -0.39168  -1.00724   1.31410
N    -1.65175  -0.99793   1.62521
C    -1.78167  -0.34137   2.90768
C    -1.61384   1.25839  -0.07293
C    -0.85447   2.12656   0.91349
O    -1.44471   3.19725   1.22218
O     0.24744   1.74173   1.40240
C    -1.21229   0.71678  -1.20799
C     0.14758   0.92234  -1.85893
O     0.49909   0.06797  -2.72510
O     0.81038   1.95461  -1.54429
H     3.32757   0.59173  -1.03500
H     4.06116  -0.62779   0.04175
H     3.67827   0.99995   0.66996
H     1.38282   0.47608   0.81014
H    -2.69766   0.32742   2.88681
H    -1.96088  -1.13090   3.59279
H    -0.92009   0.27860   3.18681
H    -2.66952   1.03854   0.26761
H    -1.81613  -0.05641  -1.68319
27

C     3.33194   0.20697  -0.00763
N     2.02135  -0.24081   0.41864
C     1.46031  -1.31423  -0.17228
O     2.02728  -2.05158  -0.99516
C     0.06381  -1.58816   0.21657
C    -0.79732  -2.34528  -0.60698
N    -1.46125  -3.05299  -1.25838
O    -0.38987  -1.00768   1.31353
N    -1.65252  -0.97468   1.61301
C    -1.78401  -0.33630   2.90282
C    -1.61267   1.24280  -0.05837
C    -0.85461   2.12206   0.91759
O    -1.44567   3.19322   1.21978
O     0.25022   1.74252   1.40396
C    -1.20161   0.69778  -1.19415
C     0.14917   0.91892  -1.85537
O     0.49875   0.06967  -2.72642
O     0.80576   1.95458  -1.54238
H     3.32849   0.59131  -1.03481
H     4.06135  -0.62823   0.04237
H     3.67857   0.99965   0.67025
H     1.38319   0.47622   0.81027
H    -2.69881   0.32803   2.88741
H    -1.96055  -1.13191   3.58847
H    -0.92130   0.27987   3.18738
H    -2.67045   1.03990   0.26567
H    -1.81346  -0.06026  -1.68039
27

C     3.33326   0.20599  -0.00681
N     2.02160  -0.24026   0.41741
C     1.45854  -1.31099  -0.17586
O     2.02526  -2.05111  -0.99583
C     0.05750  -1.57330   0.20573
C    -0.79842  -2.34435  -0.60932
N    -1.46040  -3.05649  -1.25722
O    -0.38805  -1.00812   1.31295
N    -1.65330  -0.95142   1.60080
C    -1.78636  -0.33123   2.89797
C    -1.61150   1.22721  -0.04381
C    -0.85475   2.11755   0.92169
O    -1.44663   3.18919   1.21739
O     0.25301   1.74331   1.40553
C    -1.19093   0.67877  -1.18032
C     0.15076   0.91549  -1.85181
O     0.49841   0.07138  -2.72773
O     0.80114   1.95454  -1.54046
H     3.32941   0.59089  -1.03463
H     4.06153  -0.62866   0.04300
H     3.67887   0.99935   0.67054
H     1.38355   0.47637   0.81039
H    -2.69996   0.32864   2.88802
H    -1.96022  -1.13291   3.58415
H    -0.92250   0.28114   3.18794
H    -2.67137   1.04127   0.26373
H    -1.81079  -0.06412  -1.67759
27

C     3.33459   0.20501  -0.00599
N     2.02184  -0.23971   0.41617
C     1.45677  -1.30775  -0.17943
O     2.02325  -2.05063  -0.99650
C     0.05119  -1.55844   0.19488
C    -0.79953  -2.34341  -0.61167
N    -1.45956  -3.06000  -1.25605
O    -0.38624  -1.00856   1.31238
N    -1.65407  -0.92817   1.58860
C    -1.78871  -0.32615   2.89311
C    -1.61033   1.21162  -0.02925
C    -0.85489   2.11305   0.92579
O    -1.44759   3.18517   1.21500
O     0.25579   1.74410   1.40710
C    -1.18025   0.65976  -1.16648
C     0.15235   0.91207  -1.84825
O     0.49807   0.07308  -2.72905
O     0.79652   1.95451  -1.53855
H     3.33033   0.59048  -1.03444
H     4.06172  -0.62910   0.04362
H     3.67917   0.99906   0.67082
H     1.38391   0.47652   0.81052
H    -2.70111   0.32925   2.88863
H    -1.95989  -1.13392   3.57983
H    -0.92371   0.28241   3.18851
H    -2.67230   1.04264   0.26179
H    -1.80812  -0.06797  -1.67480
27

C     3.33592   0.20403  -0.00518
N     2.02208  -0.23916   0.41494
C     1.45499  -1.30452  -0.18301
O     2.02124  -2.05016  -0.99716
C     0.04488  -1.54358   0.18404
C    -0.80064  -2.34247  -0.61401
N    -1.45872  -3.06351  -1.25489
O    -0.38443  -1.00900   1.31181
N    -1.65484  -0.90491   1.57640
C    -1.79105  -0.32108   2.88825
C    -1.60917   1.19603  -0.01468
C    -0.85503   2.10854   0.92990
O    -1.44854   3.18114   1.21260
O     0.25857   1.74490   1.40867
C    -1.16957   0.64076  -1.15264
C     0.15394   0.90865  -1.84469
O     0.49773   0.07479  -2.73036
O     0.79190   1.95448  -1.53664
H     3.33125   0.59006  -1.03425
H     4.06190  -0.62953   0.04424
H     3.67948   0.99876   0.67111
H     1.38427   0.47667   0.81064
H    -2.70226   0.32987   2.88923
H    -1.95956  -1.13492   3.57551
H    -0.92492   0.28368   3.18908
H    -2.67322   1.04401   0.25985
H    -1.80545  -0.07183  -1.67200
27

C     3.33724   0.20305  -0.00436
N     2.02232  -0.23861   0.41371
C     1.45322  -1.30128  -0.18659
O     2.01923  -2.04968  -0.99783
C     0.03857  -1.52873   0.17320
C    -0.80174  -2.34154  -0.61636
N    -1.45787  -3.06702  -1.25372
O    -0.38262  -1.00944   1.31124
N    -1.65562  -0.88166   1.56419
C    -1.79340  -0.31601   2.88340
C    -1.60800   1.18044  -0.00012
C    -0.85517   2.10404   0.93400
O    -1.44950   3.17711   1.21021
O     0.26135   1.74569   1.41024
C    -1.15889   0.62175  -1.13880
C     0.15553   0.90522  -1.84113
O     0.49739   0.07649  -2.73168
O     0.78728   1.95445  -1.53472
H     3.33216   0.58964  -1.03407
H     4.06209  -0.62997   0.04486
H     3.67978   0.99846   0.67140
H     1.38464   0.47682   0.81077
H    -2.70341   0.33048   2.88984
H    -1.95923  -1.13593   3.57118
H    -0.92613   0.28495   3.18965
H    -2.67415   1.04538   0.25791
H    -1.80279  -0.07568  -1.66920
27

C     3.33857   0.20207  -0.00354
N     2.02256  -0.23806   0.41248
C     1.45145  -1.29804  -0.19017
O     2.01721  -2.04920  -0.99850
C     0.03226  -1.51387   0.16235
C    -0.80285  -2.34060  -0.61870
N    -1.45703  -3.07053  -1.25255
O    -0.38081  -1.00988   1.31067
N    -1.65639  -0.85840   1.55199
C    -1.79574  -0.31094   2.87854
C    -1.60683   1.16484   0.01444
C    -0.85530   2.09954   0.93810
O    -1.45046   3.17308   1.20782
O     0.26413   1.74648   1.41181
C    -1.14821   0.60275  -1.12496
C     0.15712   0.90180  -1.83757
O     0.49705   0.07820  -2.73299
O     0.78265   1.95442  -1.53281
H     3.33308   0.58923  -1.03388
H     4.06227  -0.63041   0.04548
H     3.68008   0.99816   0.67169
H     1.38500   0.47696   0.81089
H    -2.70456   0.33109   2.89044
H    -1.95890  -1.13693   3.56686
H    -0.92733   0.28622   3.19022
H    -2.67507   1.04675   0.25597
H    -1.80012  -0.07954  -1.66640
27

C     3.33989   0.20109  -0.00272
N     2.02281  -0.23751   0.41124
C     1.44968  -1.29480  -0.19375
O     2.01520  -2.04873  -0.99917
C     0.02596  -1.49901   0.15151
C    -0.80396  -2.33966  -0.62105
N    -1.45619  -3.07403  -1.25139
O    -0.37900  -1.01032   1.31009
N    -1.65717  -0.83514   1.53979
C    -1.79809  -0.30587   2.87368
C    -1.60566   1.14925   0.02901
C    -0.85544   2.09503   0.94220
O    -1.45142   3.16905   1.20542
O     0.26691   1.74727   1.41337
C    -1.13753   0.58374  -1.11113
C     0.15870   0.89838  -1.83401
O     0.49670   0.07990  -2.73431
O     0.77803   1.95438  -1.53090
H     3.33400   0.58881  -1.03369
H     4.06246  -0.63084   0.04610
H     3.68038   0.99787   0.67198
H     1.38536   0.47711   0.81101
H    -2.70571   0.33170   2.89105
H    -1.95857  -1.13794   3.56254
H    -0.92854   0.28749   3.19079
H    -2.67600   1.04812   0.25403
H    -1.79745  -0.08339  -1.66361
27

C     3.34122   0.20012  -0.00191
N     2.02305  -0.23696   0.41001
C     1.44790  -1.29156  -0.19733
O     2.01319  -2.04825  -0.99984
C     0.01965  -1.48415   0.14066
C    -0.80506  -2.33872  -0.62339
N    -1.45534  -3.07754  -1.25022
O    -0.37718  -1.01076   1.30952
N    -1.65794  -0.81189   1.52758
C    -1.80043  -0.30080   2.86883
C    -1.60450   1.13366   0.04357
C    -0.85558   2.09053   0.94630
O    -1.45238   3.16502   1.20303
O     0.26970   1.74806   1.41494
C    -1.12685   0.56473  -1.09729
C     0.16029   0.89496  -1.83045
O     0.49636   0.08161  -2.73562
O     0.77341   1.95435  -1.52898
H     3.33492   0.58839  -1.03350
H     4.06264  -0.63128   0.04672
H     3.68068   0.99757   0.67226
H     1.38573   0.47726   0.81114
H    -2.70686   0.33231   2.89166
H    -1.95824  -1.13894   3.55822
H    -0.92975   0.28877   3.19136
H    -2.67692   1.04949   0.25209
H    -1.79478  -0.08725  -1.66081
27

C     3.34255   0.19914  -0.00109
N     2.02329  -0.23641   0.40878
C     1.44613  -1.28832  -0.20091
O     2.01118  -2.04777  -1.00050
C     0.01334  -1.46930   0.12982
C    -0.80617  -2.33779  -0.62574
N    -1.45450  -3.08105  -1.24906
O    -0.37537  -1.01120   1.30895
N    -1.65872  -0.78863   1.51538
C    -1.80278  -0.29573   2.86397
C    -1.60333   1.11807   0.05813
C    -0.85572   2.08603   0.95040
O    -1.45334   3.16099   1.20064
O     0.27248   1.74885   1.41651
C    -1.11617   0.54573  -1.08345
C     0.16188   0.89153  -1.82689
O     0.49602   0.08331  -2.73694
O     0.76879   1.95432  -1.52707
H     3.33584   0.58797  -1.03332
H     4.06282  -0.63171   0.04734
H     3.68099   0.99727   0.67255
H     1.38609   0.47741   0.81126
H    -2.70801   0.33292   2.89226
H    -1.95791  -1.13995   3.55390
H    -0.93096   0.29004   3.19193
H    -2.67785   1.05086   0.25015
H    -1.79211  -0.09110  -1.65801
27

C     3.34387   0.19816  -0.00027
N     2.02353  -0.23586   0.40755
C     1.44436  -1.28508  -0.20449
O     2.00916  -2.04730  -1.00117
C     0.00703  -1.45444   0.11898
C    -0.80728  -2.33685  -0.62808
N    -1.45365  -3.08456  -1.24789
O    -0.37356  -1.01164   1.30838
N    -1.65949  -0.76538   1.50318
C    -1.80512  -0.29066   2.85911
C    -1.60216   1.10248   0.07270
C    -0.85586   2.08152   0.95450
O    -1.45429   3.15696   1.19824
O     0.27526   1.74964   1.41808
C    -1.10549   0.52672  -1.06961
C     0.16347   0.88811  -1.82333
O     0.49568   0.08502  -2.73825
O     0.76417   1.95429  -1.52516
H     3.33675   0.58756  -1.03313
H     4.06301  -0.63215   0.04796
H     3.68129   0.99697   0.67284
H     1.38645   0.47756   0.81139
H    -2.70916   0.33353   2.89287
H    -1.95758  -1.14095   3.54958
H    -0.93217   0.29131   3.19249
H    -2.67877   1.05222   0.24821
H    -1.78944  -0.09496  -1.65522
27

C     3.34520   0.19718   0.00054
N     2.02378  -0.23531   0.40631
C     1.44258  -1.28185  -0.20807
O     2.00715  -2.04682  -1.00184
C     0.00072  -1.43958   0.10813
C    -0.80838  -2.33591  -0.63043
N    -1.45281  -3.08806  -1.24672
O    -0.37175  -1.01208   1.30781
N    -1.66026  -0.74212   1.49097
C    -1.80747  -0.28558   2.85426
C    -1.60100   1.08688   0.08726
C    -0.85600   2.07702   0.95860
O    -1.45525   3.15293   1.19585
O     0.27804   1.75043   1.41965
C    -1.09481   0.50772  -1.05578
C     0.16506   0.88469  -1.81977
O     0.49534   0.08672  -2.73957
O     0.75955   1.95425  -1.52324
H     3.33767   0.58714  -1.03294
H     4.06319  -0.63259   0.04858
H     3.68159   0.99668   0.67313
H     1.38682   0.47770   0.81151
H    -2.71031   0.33415   2.89347
H    -1.95725  -1.14196   3.54525
H    -0.93337   0.29258   3.19306
H    -2.67970   1.05359   0.24627
H    -1.78677  -0.09881  -1.65242
27

C     3.34653   0.19620   0.00136
N     2.02402  -0.23476   0.40508
C     1.44081  -1.27861  -0.21165
O     2.00514  -2.04634  -1.00251
C    -0.00559  -1.42472   0.09729
C    -0.80949  -2.33498  -0.63278
N    -1.45197  -3.09157  -1.24556
O    -0.36994  -1.01252   1.30724
N    -1.66104  -0.71887   1.47877
C    -1.80981  -0.28051   2.84940
C    -1.59983   1.07129   0.10182
C    -0.85614   2.07251   0.96270
O    -1.45621   3.14891   1.19346
O     0.28082   1.75123   1.42121
C    -1.08413   0.48871  -1.04194
C     0.16665   0.88126  -1.81621
O     0.49500   0.08842  -2.74088
O     0.75493   1.95422  -1.52133
H     3.33859   0.58672  -1.03275
H     4.06338  -0.63302   0.04920
H     3.68189   0.99638   0.67342
H     1.38718   0.47785   0.81164
H    -2.71146   0.33476   2.89408
H    -1.95692  -1.14296   3.54093
H    -0.93458   0.29385   3.19363
H    -2.68063   1.05496   0.24433
H    -1.78411  -0.10267  -1.64962
27

C     3.34785   0.19522   0.00218
N     2.02426  -0.23421   0.40385
C     1.43904  -1.27537  -0.21523
O     2.00312  -2.04587  -1.00317
C    -0.01190  -1.40987   0.08644
C    -0.81059  -2.33404  -0.63512
N    -1.45112  -3.09508  -1.24439
O    -0.36813  -1.01296   1.30666
N    -1.66181  -0.69561   1.46656
C    -1.81216  -0.27544   2.84454
C    -1.59866   1.05570   0.11638
C    -0.85628   2.06801   0.96680
O    -1.45717   3.14488   1.19106
O     0.28360   1.75202   1.42278
C    -1.07345   0.46970  -1.02810
C     0.16824   0.87784  -1.81265
O     0.49466   0.09013  -2.74220
O     0.75031   1.95419  -1.51942
H     3.33951   0.58631  -1.03257
H     4.06356  -0.63346   0.04982
H     3.68219   0.99608   0.67370
H     1.38754   0.47800   0.81176
H    -2.71261   0.33537   2.89469
H    -1.95659  -1.14397   3.53661
H    -0.93579   0.29512   3.19420
H    -2.68155   1.05633   0.24239
H    -1.78144  -0.10652  -1.64682
27

C     3.34918   0.19424   0.00300
N     2.02450  -0.23366   0.40262
C     1.43726  -1.27213  -0.21881
O     2.00111  -2.04539  -1.00384
C    -0.01821  -1.39501   0.07560
C    -0.81170  -2.33310  -0.63747
N    -1.45028  -3.09859  -1.24323
O    -0.36631  -1.01340   1.30609
N    -1.66259  -0.67235   1.45436
C    -1.81451  -0.27037   2.83969
C    -1.59749   1.04011   0.13095
C    -0.85642   2.06351   0.97090
O    -1.45813   3.14085   1.18867
O     0.28638   1.75281   1.42435
C    -1.06277   0.45070  -1.01426
C     0.16982   0.87442  -1.80909
O     0.49431   0.09183  -2.74351
O     0.74569   1.95416  -1.51750
H     3.34043   0.58589  -1.03238
H     4.06375  -0.63390   0.05044
H     3.68250   0.99578   0.67399
H     1.38790   0.47815   0.81189
H    -2.71376   0.33598   2.89529
H    -1.95626  -1.14497   3.53229
H    -0.93700   0.29639   3.19477
H    -2.68248   1.05770   0.24045
H    -1.77877  -0.11038  -1.64403
27

C     3.35050   0.19326   0.00381
N     2.02474  -0.23311   0.40138
C     1.43549  -1.26889  -0.22238
O     1.99910  -2.04491  -1.00451
C    -0.02452  -1.38015   0.06476
C    -0.81281  -2.33216  -0.63981
N    -1.44944  -3.10210  -1.24206
O    -0.36450  -1.01384   1.30552
N    -1.66336  -0.64910   1.44216
C    -1.81685  -0.26530   2.83483
C    -1.59633   1.02452   0.14551
C    -0.85656   2.05900   0.97501
O    -1.45908   3.13682   1.18628
O     0.28917   1.75360   1.42592
C    -1.05209   0.43169  -1.00043
C     0.17141   0.87100  -1.80553
O     0.49397   0.09354  -2.74483
O     0.74107   1.95413  -1.51559
H     3.34134   0.58547  -1.03219
H     4.06393  -0.63433   0.05106
H     3.68280   0.99548   0.67428
H     1.38827   0.47830   0.81201
H    -2.71492   0.33659   2.89590
H    -1.95593  -1.14598   3.52797
H    -0.93820   0.29766   3.19534
H    -2.68340   1.05907   0.23850
H    -1.77610  -0.11423  -1.64123
27

C     3.35183   0.19228   0.00463
N     2.02499  -0.23256   0.40015
C     1.43372  -1.26565  -0.22596
O     1.99709  -2.04444  -1.00518
C    -0.03083  -1.36529   0.05391
C    -0.81391  -2.33123  -0.64216
N    -1.44859  -3.10560  -1.24090
O    -0.36269  -1.01428   1.30495
N    -1.66413  -0.62584   1.42995
C    -1.81920  -0.26023   2.82997
C    -1.59516   1.00893   0.16007
C    -0.85670   2.05450   0.97911
O    -1.46004   3.13279   1.18388
O     0.29195   1.75439   1.42749
C    -1.04141   0.41268  -0.98659
C     0.17300   0.86757  -1.80197
O     0.49363   0.09524  -2.74614
O     0.73645   1.95409  -1.51367
H     3.34226   0.58506  -1.03200
H     4.06412  -0.63477   0.05168
H     3.68310   0.99519   0.67457
H     1.38863   0.47844   0.81214
H    -2.71607   0.33720   2.89650
H    -1.95560  -1.14698   3.52365
H    -0.93941   0.29893   3.19591
H    -2.68433   1.06044   0.23656
H    -1.77343  -0.11809  -1.63843
27

C     3.35316   0.19131   0.00545
N     2.02523  -0.23201   0.39892
C     1.43194  -1.26242  -0.22954
O     1.99507  -2.04396  -1.00584
C    -0.03714  -1.35044   0.04307
C    -0.81502  -2.33029  -0.64450
N    -1.44775  -3.10911  -1.23973
O    -0.36088  -1.01472   1.30438
N    -1.66491  -0.60259   1.41775
C    -1.82154  -0.25516   2.82512
C    -1.59399   0.99333   0.17464
C    -0.85684   2.04999   0.98321
O    -1.46100   3.12876   1.18149
O     0.29473   1.75518   1.42905
C    -1.03073   0.39368  -0.97275
C     0.17459   0.86415  -1.79841
O     0.49329   0.09695  -2.74746
O     0.73183   1.95406  -1.51176
H     3.34318   0.58464  -1.03182
H     4.06430  -0.63520   0.05230
H     3.68340   0.99489   0.67486
H     1.38899   0.47859   0.81226
H    -2.71722   0.33781   2.89711
H    -1.95527  -1.14798   3.51932
H    -0.94062   0.30021   3.19648
H    -2.68525   1.06181   0.23462
H    -1.77076  -0.12194  -1.63564
27

C     3.35448   0.19033   0.00626
N     2.02547  -0.23146   0.39769
C     1.43017  -1.25918  -0.23312
O     1.99306  -2.04348  -1.00651
C    -0.04345  -1.33558   0.03222
C    -0.81613  -2.32935  -0.64685
N    -1.44691  -3.11262  -1.23856
O    -0.35907  -1.01516   1.30380
N    -1.66568  -0.57933   1.40555
C    -1.82389  -0.25009   2.82026
C    -1.59282   0.97774   0.18920
C    -0.85697   2.04549   0.98731
O    -1.46196   3.12473   1.17910
O     0.29751   1.75597   1.43062
C    -1.02005   0.37467  -0.95891
C     0.17618   0.86073  -1.79485
O     0.49295   0.09865  -2.74877
O     0.72721   1.95403  -1.50985
H     3.34410   0.58422  -1.03163
H     4.06449  -0.63564   0.05292
H     3.68370   0.99459   0.67514
H     1.38936   0.47874   0.81239
H    -2.71837   0.33843   2.89772
H    -1.95494  -1.14899   3.51500
H    -0.94183   0.30148   3.19704
H    -2.68618   1.06318   0.23268
H    -1.76809  -0.12580  -1.63284
27

C     3.35581   0.18935   0.00708
N     2.02571  -0.23091   0.39645
C     1.42840  -1.25594  -0.23670
O     1.99105  -2.04301  -1.00718
C    -0.04976  -1.32072   0.02138
C    -0.81723  -2.32842  -0.64919
N    -1.44606  -3.11613  -1.23740
O    -0.35725  -1.01560   1.30323
N    -1.66646  -0.55608   1.39334
C    -1.82623  -0.24502   2.81540
C    -1.59166   0.96215   0.20376
C    -0.85711   2.04099   0.99141
O    -1.46292   3.12070   1.17670
O     0.30029   1.75676   1.43219
C    -1.00937   0.35567  -0.94507
C     0.17777   0.85730  -1.79130
O     0.49261   0.10036  -2.75009
O     0.72259   1.95400  -1.50793
H     3.34502   0.58381  -1.03144
H     4.06467  -0.63608   0.05354
H     3.68401   0.99429   0.67543
H     1.38972   0.47889   0.81251
H    -2.71952   0.33904   2.89832
H    -1.95461  -1.14999   3.51068
H    -0.94304   0.30275   3.19761
H    -2.68710   1.06454   0.23074
H    -1.76543  -0.12965  -1.63004
27

C     3.35714   0.18837   0.00790
N     2.02596  -0.23036   0.39522
C     1.42662  -1.25270  -0.24028
O     1.98904  -2.04253  -1.00785
C    -0.05607  -1.30586   0.01054
C    -0.81834  -2.32748  -0.65154
N    -1.44522  -3.11963  -1.23623
O    -0.35544  -1.01604   1.30266
N    -1.66723  -0.53282   1.38114
C    -1.82858  -0.23994   2.81055
C    -1.59049   0.94656   0.21832
C    -0.85725   2.03648   0.99551
O    -1.46388   3.11667   1.17431
O     0.30307   1.75756   1.43376
C    -0.99869   0.33666  -0.93124
C     0.17936   0.85388  -1.78774
O     0.49226   0.10206  -2.75140
O     0.71797   1.95397  -1.50602
H     3.34594   0.58339  -1.03125
H     4.06486  -0.63651   0.05416
H     3.68431   0.99400   0.67572
H     1.39008   0.47904   0.81263
H    -2.72067   0.33965   2.89893
H    -1.95428  -1.15100   3.50636
H    -0.94424   0.30402   3.19818
H    -2.68803   1.06591   0.22880
H    -1.76276  -0.13351  -1.62724
27

C     3.35581   0.18935   0.00708
N     2.02571  -0.23091   0.39645
C     1.42840  -1.25594  -0.23670
O     1.99105  -2.04301  -1.00718
C    -0.04976  -1.32072   0.02138
C    -0.81723  -2.32842  -0.64919
N    -1.44606  -3.11613  -1.23740
O    -0.35725  -1.01560   1.30323
N    -1.66646  -0.55608   1.39334
C    -1.82623  -0.24502   2.81540
C    -1.59166   0.96215   0.20376
C    -0.85711   2.04099   0.99141
O    -1.46292   3.12070   1.17670
O     0.30029   1.75676   1.43219
C    -1.00937   0.35567  -0.94507
C     0.17777   0.85730  -1.79130
O     0.49261   0.10036  -2.75009
O     0.72259   1.95400  -1.50793
H     3.34502   0.58381  -1.03144
H     4.06467  -0.63608   0.05354
H     3.68401   0.99429   0.67543
H     1.38972   0.47889   0.81251
H    -2.71952   0.33904   2.89832
H    -1.95461  -1.14999   3.51068
H    -0.94304   0.30275   3.19761
H    -2.68710   1.06454   0.23074
H    -1.76543  -0.12965  -1.63004
27

C     3.35448   0.19033   0.00626
N     2.02547  -0.23146   0.39769
C     1.43017  -1.25918  -0.23312
O     1.99306  -2.04348  -1.00651
C    -0.04345  -1.33558   0.03222
C    -0.81613  -2.32935  -0.64685
N    -1.44691  -3.11262  -1.23856
O    -0.35907  -1.01516   1.30380
N    -1.66568  -0.57933   1.40555
C    -1.82389  -0.25009   2.82026
C    -1.59282   0.97774   0.18920
C    -0.85697   2.04549   0.98731
O    -1.46196   3.12473   1.17910
O     0.29751   1.75597   1.43062
C    -1.02005   0.37467  -0.95891
C     0.17618   0.86073  -1.79485
O     0.49295   0.09865  -2.74877
O     0.72721   1.95403  -1.50985
H     3.34410   0.58422  -1.03163
H     4.06449  -0.63564   0.05292
H     3.68370   0.99459   0.67514
H     1.38936   0.47874   0.81239
H    -2.71837   0.33843   2.89772
H    -1.95494  -1.14899   3.51500
H    -0.94183   0.30148   3.19704
H    -2.68618   1.06318   0.23268
H    -1.76809  -0.12580  -1.63284
27

C     3.35316   0.19131   0.00545
N     2.02523  -0.23201   0.39892
C     1.43194  -1.26242  -0.22954
O     1.99507  -2.04396  -1.00584
C    -0.03714  -1.35044   0.04307
C    -0.81502  -2.33029  -0.64450
N    -1.44775  -3.10911  -1.23973
O    -0.36088  -1.01472   1.30438
N    -1.66491  -0.60259   1.41775
C    -1.82154  -0.25516   2.82512
C    -1.59399   0.99333   0.17464
C    -0.85684   2.04999   0.98321
O    -1.46100   3.12876   1.18149
O     0.29473   1.75518   1.42905
C    -1.03073   0.39368  -0.97275
C     0.17459   0.86415  -1.79841
O     0.49329   0.09695  -2.74746
O     0.73183   1.95406  -1.51176
H     3.34318   0.58464  -1.03182
H     4.06430  -0.63520   0.05230
H     3.68340   0.99489   0.67486
H     1.38899   0.47859   0.81226
H    -2.71722   0.33781   2.89711
H    -1.95527  -1.14798   3.51932
H    -0.94062   0.30021   3.19648
H    -2.68525   1.06181   0.23462
H    -1.77076  -0.12194  -1.63564
27

C     3.35183   0.19228   0.00463
N     2.02499  -0.23256   0.40015
C     1.43372  -1.26565  -0.22596
O     1.99709  -2.04444  -1.00518
C    -0.03083  -1.36529   0.05391
C    -0.81391  -2.33123  -0.64216
N    -1.44859  -3.10560  -1.24090
O    -0.36269  -1.01428   1.30495
N    -1.66413  -0.62584   1.42995
C    -1.81920  -0.26023   2.82997
C    -1.59516   1.00893   0.16007
C    -0.85670   2.05450   0.97911
O    -1.46004   3.13279   1.18388
O     0.29195   1.75439   1.42749
C    -1.04141   0.41268  -0.98659
C     0.17300   0.86757  -1.80197
O     0.49363   0.09524  -2.74614
O     0.73645   1.95409  -1.51367
H     3.34226   0.58506  -1.03200
H     4.06412  -0.63477   0.05168
H     3.68310   0.99519   0.67457
H     1.38863   0.47844   0.81214
H    -2.71607   0.33720   2.89650
H    -1.95560  -1.14698   3.52365
H    -0.93941   0.29893   3.19591
H    -2.68433   1.06044   0.23656
H    -1.77343  -0.11809  -1.63843
27

C     3.35050   0.19326   0.00381
N     2.02474  -0.23311   0.40138
C     1.43549  -1.26889  -0.22238
O     1.99910  -2.04491  -1.00451
C    -0.02452  -1.38015   0.06476
C    -0.81281  -2.33216  -0.63981
N    -1.44944  -3.10210  -1.24206
O    -0.36450  -1.01384   1.30552
N    -1.66336  -0.64910   1.44216
C    -1.81685  -0.26530   2.83483
C    -1.59633   1.02452   0.14551
C    -0.85656   2.05900   0.97501
O    -1.45908   3.13682   1.18628
O     0.28917   1.75360   1.42592
C    -1.05209   0.43169  -1.00043
C     0.17141   0.87100  -1.80553
O     0.49397   0.09354  -2.74483
O     0.74107   1.95413  -1.51559
H     3.34134   0.58547  -1.03219
H     4.06393  -0.63433   0.05106
H     3.68280   0.99548   0.67428
H     1.38827   0.47830   0.81201
H    -2.71492   0.33659   2.89590
H    -1.95593  -1.14598   3.52797
H    -0.93820   0.29766   3.19534
H    -2.68340   1.05907   0.23850
H    -1.77610  -0.11423  -1.64123
27

C     3.34918   0.19424   0.00300
N     2.02450  -0.23366   0.40262
C     1.43726  -1.27213  -0.21881
O     2.00111  -2.04539  -1.00384
C    -0.01821  -1.39501   0.07560
C    -0.81170  -2.33310  -0.63747
N    -1.45028  -3.09859  -1.24323
O    -0.36631  -1.01340   1.30609
N    -1.66259  -0.67235   1.45436
C    -1.81451  -0.27037   2.83969
C    -1.59749   1.04011   0.13095
C    -0.85642   2.06351   0.97090
O    -1.45813   3.14085   1.18867
O     0.28638   1.75281   1.42435
C    -1.06277   0.45070  -1.01426
C     0.16982   0.87442  -1.80909
O     0.49431   0.09183  -2.74351
O     0.74569   1.95416  -1.51750
H     3.34043   0.58589  -1.03238
H     4.06375  -0.63390   0.05044
H     3.68250   0.99578   0.67399
H     1.38790   0.47815   0.81189
H    -2.71376   0.33598   2.89529
H    -1.95626  -1.14497   3.53229
H    -0.93700   0.29639   3.19477
H    -2.68248   1.05770   0.24045
H    -1.77877  -0.11038  -1.64403
27

C     3.34785   0.19522   0.00218
N     2.02426  -0.23421   0.40385
C     1.43904  -1.27537  -0.21523
O     2.00312  -2.04587  -1.00317
C    -0.01190  -1.40987   0.08644
C    -0.81059  -2.33404  -0.63512
N    -1.45112  -3.09508  -1.24439
O    -0.36813  -1.01296   1.30666
N    -1.66181  -0.69561   1.46656
C    -1.81216  -0.27544   2.84454
C    -1.59866   1.05570   0.11638
C    -0.85628   2.06801   0.96680
O    -1.45717   3.14488   1.19106
O     0.28360   1.75202   1.42278
C    -1.07345   0.46970  -1.02810
C     0.16824   0.87784  -1.81265
O     0.49466   0.09013  -2.74220
O     0.75031   1.95419  -1.51942
H     3.33951   0.58631  -1.03257
H     4.06356  -0.63346   0.04982
H     3.68219   0.99608   0.67370
H     1.38754   0.47800   0.81176
H    -2.71261   0.33537   2.89469
H    -1.95659  -1.14397   3.53661
H    -0.93579   0.29512   3.19420
H    -2.68155   1.05633   0.24239
H    -1.78144  -0.10652  -1.64682
27

C     3.34653   0.19620   0.00136
N     2.02402  -0.23476   0.40508
C     1.44081  -1.27861  -0.21165
O     2.00514  -2.04634  -1.00251
C    -0.00559  -1.42472   0.09729
C    -0.80949  -2.33498  -0.63278
N    -1.45197  -3.09157  -1.24556
O    -0.36994  -1.01252   1.30724
N    -1.66104  -0.71887   1.47877
C    -1.80981  -0.28051   2.84940
C    -1.59983   1.07129   0.10182
C    -0.85614   2.07251   0.96270
O    -1.45621   3.14891   1.19346
O     0.28082   1.75123   1.42121
C    -1.08413   0.48871  -1.04194
C     0.16665   0.88126  -1.81621
O     0.49500   0.08842  -2.74088
O     0.75493   1.95422  -1.52133
H     3.33859   0.58672  -1.03275
H     4.06338  -0.63302   0.04920
H     3.68189   0.99638   0.67342
H     1.38718   0.47785   0.81164
H    -2.71146   0.33476   2.89408
H    -1.95692  -1.14296   3.54093
H    -0.93458   0.29385   3.19363
H    -2.68063   1.05496   0.24433
H    -1.78411  -0.10267  -1.64962
27

C     3.34520   0.19718   0.00054
N     2.02378  -0.23531   0.40631
C     1.44258  -1.28185  -0.20807
O     2.00715  -2.04682  -1.00184
C     0.00072  -1.43958   0.10813
C    -0.80838  -2.33591  -0.63043
N    -1.45281  -3.08806  -1.24672
O    -0.37175  -1.01208   1.30781
N    -1.66026  -0.74212   1.49097
C    -1.80747  -0.28558   2.85426
C    -1.60100   1.08688   0.08726
C    -0.85600   2.07702   0.95860
O    -1.45525   3.15293   1.19585
O     0.27804   1.75043   1.41965
C    -1.09481   0.50772  -1.05578
C     0.16506   0.88469  -1.81977
O     0.49534   0.08672  -2.73957
O     0.75955   1.95425  -1.52324
H     3.33767   0.58714  -1.03294
H     4.06319  -0.63259   0.04858
H     3.68159   0.99668   0.67313
H     1.38682   0.47770   0.81151
H    -2.71031   0.33415   2.89347
H    -1.95725  -1.14196   3.54525
H    -0.93337   0.29258   3.19306
H    -2.67970   1.05359   0.24627
H    -1.78677  -0.09881  -1.65242
27

C     3.34387   0.19816  -0.00027
N     2.02353  -0.23586   0.40755
C     1.44436  -1.28508  -0.20449
O     2.00916  -2.04730  -1.00117
C     0.00703  -1.45444   0.11898
C    -0.80728  -2.33685  -0.62808
N    -1.45365  -3.08456  -1.24789
O    -0.37356  -1.01164   1.30838
N    -1.65949  -0.76538   1.50318
C    -1.80512  -0.29066   2.85911
C    -1.60216   1.10248   0.07270
C    -0.85586   2.08152   0.95450
O    -1.45429   3.15696   1.19824
O     0.27526   1.74964   1.41808
C    -1.10549   0.52672  -1.06961
C     0.16347   0.88811  -1.82333
O     0.49568   0.08502  -2.73825
O     0.76417   1.95429  -1.52516
H     3.33675   0.58756  -1.03313
H     4.06301  -0.63215   0.04796
H     3.68129   0.99697   0.67284
H     1.38645   0.47756   0.81139
H    -2.70916   0.33353   2.89287
H    -1.95758  -1.14095   3.54958
H    -0.93217   0.29131   3.19249
H    -2.67877   1.05222   0.24821
H    -1.78944  -0.09496  -1.65522
27

C     3.34255   0.19914  -0.00109
N     2.02329  -0.23641   0.40878
C     1.44613  -1.28832  -0.20091
O     2.01118  -2.04777  -1.00050
C     0.01334  -1.46930   0.12982
C    -0.80617  -2.33779  -0.62574
N    -1.45450  -3.08105  -1.24906
O    -0.37537  -1.01120   1.30895
N    -1.65872  -0.78863   1.51538
C    -1.80278  -0.29573   2.86397
C    -1.60333   1.11807   0.05813
C    -0.85572   2.08603   0.95040
O    -1.45334   3.16099   1.20064
O     0.27248   1.74885   1.41651
C    -1.11617   0.54573  -1.08345
C     0.16188   0.89153  -1.82689
O     0.49602   0.08331  -2.73694
O     0.76879   1.95432  -1.52707
H     3.33584   0.58797  -1.03332
H     4.06282  -0.63171   0.04734
H     3.68099   0.99727   0.67255
H     1.38609   0.47741   0.81126
H    -2.70801   0.33292   2.89226
H    -1.95791  -1.13995   3.55390
H    -0.93096   0.29004   3.19193
H    -2.67785   1.05086   0.25015
H    -1.79211  -0.09110  -1.65801
27

C     3.34122   0.20012  -0.00191
N     2.02305  -0.23696   0.41001
C     1.44790  -1.29156  -0.19733
O     2.01319  -2.04825  -0.99984
C     0.01965  -1.48415   0.14066
C    -0.80506  -2.33872  -0.62339
N    -1.45534  -3.07754  -1.25022
O    -0.37718  -1.01076   1.30952
N    -1.65794  -0.81189   1.52758
C    -1.80043  -0.30080   2.86883
C    -1.60450   1.13366   0.04357
C    -0.85558   2.09053   0.94630
O    -1.45238   3.16502   1.20303
O     0.26970   1.74806   1.41494
C    -1.12685   0.56473  -1.09729
C     0.16029   0.89496  -1.83045
O     0.49636   0.08161  -2.73562
O     0.77341   1.95435  -1.52898
H     3.33492   0.58839  -1.03350
H     4.06264  -0.63128   0.04672
H     3.68068   0.99757   0.67226
H     1.38573   0.47726   0.81114
H    -2.70686   0.33231   2.89166
H    -1.95824  -1.13894   3.55822
H    -0.92975   0.28877   3.19136
H    -2.67692   1.04949   0.25209
H    -1.79478  -0.08725  -1.66081
27

C     3.33989   0.20109  -0.00272
N     2.02281  -0.23751   0.41124
C     1.44968  -1.29480  -0.19375
O     2.01520  -2.04873  -0.99917
C     0.02596  -1.49901   0.15151
C    -0.80396  -2.33966  -0.62105
N    -1.45619  -3.07403  -1.25139
O    -0.37900  -1.01032   1.31009
N    -1.65717  -0.83514   1.53979
C    -1.79809  -0.30587   2.87368
C    -1.60566   1.14925   0.02901
C    -0.85544   2.09503   0.94220
O    -1.45142   3.16905   1.20542
O     0.26691   1.74727   1.41337
C    -1.13753   0.58374  -1.11113
C     0.15870   0.89838  -1.83401
O     0.49670   0.07990  -2.73431
O     0.77803   1.95438  -1.53090
H     3.33400   0.58881  -1.03369
H     4.06246  -0.63084   0.04610
H     3.68038   0.99787   0.67198
H     1.38536   0.47711   0.81101
H    -2.70571   0.33170   2.89105
H    -1.95857  -1.13794   3.56254
H    -0.92854   0.28749   3.19079
H    -2.67600   1.04812   0.25403
H    -1.79745  -0.08339  -1.66361
27

C     3.33857   0.20207  -0.00354
N     2.02256  -0.23806   0.41248
C     1.45145  -1.29804  -0.19017
O     2.01721  -2.04920  -0.99850
C     0.03226  -1.51387   0.16235
C    -0.80285  -2.34060  -0.61870
N    -1.45703  -3.07053  -1.25255
O    -0.38081  -1.00988   1.31067
N    -1.65639  -0.85840   1.55199
C    -1.79574  -0.31094   2.87854
C    -1.60683   1.16484   0.01444
C    -0.85530   2.09954   0.93810
O    -1.45046   3.17308   1.20782
O     0.26413   1.74648   1.41181
C    -1.14821   0.60275  -1.12496
C     0.15712   0.90180  -1.83757
O     0.49705   0.07820  -2.73299
O     0.78265   1.95442  -1.53281
H     3.33308   0.58923  -1.03388
H     4.06227  -0.63041   0.04548
H     3.68008   0.99816   0.67169
H     1.38500   0.47696   0.81089
H    -2.70456   0.33109   2.89044
H    -1.95890  -1.13693   3.56686
H    -0.92733   0.28622   3.19022
H    -2.67507   1.04675   0.25597
H    -1.80012  -0.07954  -1.66640
27

C     3.33724   0.20305  -0.00436
N     2.02232  -0.23861   0.41371
C     1.45322  -1.30128  -0.18659
O     2.01923  -2.04968  -0.99783
C     0.03857  -1.52873   0.17320
C    -0.80174  -2.34154  -0.61636
N    -1.45787  -3.06702  -1.25372
O    -0.38262  -1.00944   1.31124
N    -1.65562  -0.88166   1.56419
C    -1.79340  -0.31601   2.88340
C    -1.60800   1.18044  -0.00012
C    -0.85517   2.10404   0.93400
O    -1.44950   3.17711   1.21021
O     0.26135   1.74569   1.41024
C    -1.15889   0.62175  -1.13880
C     0.15553   0.90522  -1.84113
O     0.49739   0.07649  -2.73168
O     0.78728   1.95445  -1.53472
H     3.33216   0.58964  -1.03407
H     4.06209  -0.62997   0.04486
H     3.67978   0.99846   0.67140
H     1.38464   0.47682   0.81077
H    -2.70341   0.33048   2.88984
H    -1.95923  -1.13593   3.57118
H    -0.92613   0.28495   3.18965
H    -2.67415   1.04538   0.25791
H    -1.80279  -0.07568  -1.66920
27

C     3.33592   0.20403  -0.00518
N     2.02208  -0.23916   0.41494
C     1.45499  -1.30452  -0.18301
O     2.02124  -2.05016  -0.99716
C     0.04488  -1.54358   0.18404
C    -0.80064  -2.34247  -0.61401
N    -1.45872  -3.06351  -1.25489
O    -0.38443  -1.00900   1.31181
N    -1.65484  -0.90491   1.57640
C    -1.79105  -0.32108   2.88825
C    -1.60917   1.19603  -0.01468
C    -0.85503   2.10854   0.92990
O    -1.44854   3.18114   1.21260
O     0.25857   1.74490   1.40867
C    -1.16957   0.64076  -1.15264
C     0.15394   0.90865  -1.84469
O     0.49773   0.07479  -2.73036
O     0.79190   1.95448  -1.53664
H     3.33125   0.59006  -1.03425
H     4.06190  -0.62953   0.04424
H     3.67948   0.99876   0.67111
H     1.38427   0.47667   0.81064
H    -2.70226   0.32987   2.88923
H    -1.95956  -1.13492   3.57551
H    -0.92492   0.28368   3.18908
H    -2.67322   1.04401   0.25985
H    -1.80545  -0.07183  -1.67200
27

C     3.33459   0.20501  -0.00599
N     2.02184  -0.23971   0.41617
C     1.45677  -1.30775  -0.17943
O     2.02325  -2.05063  -0.99650
C     0.05119  -1.55844   0.19488
C    -0.79953  -2.34341  -0.61167
N    -1.45956  -3.06000  -1.25605
O    -0.38624  -1.00856   1.31238
N    -1.65407  -0.92817   1.58860
C    -1.78871  -0.32615   2.89311
C    -1.61033   1.21162  -0.02925
C    -0.85489   2.11305   0.92579
O    -1.44759   3.18517   1.21500
O     0.25579   1.74410   1.40710
C    -1.18025   0.65976  -1.16648
C     0.15235   0.91207  -1.84825
O     0.49807   0.07308  -2.72905
O     0.79652   1.95451  -1.53855
H     3.33033   0.59048  -1.03444
H     4.06172  -0.62910   0.04362
H     3.67917   0.99906   0.67082
H     1.38391   0.47652   0.81052
H    -2.70111   0.32925   2.88863
H    -1.95989  -1.13392   3.57983
H    -0.92371   0.28241   3.18851
H    -2.67230   1.04264   0.26179
H    -1.80812  -0.06797  -1.67480
27

C     3.33326   0.20599  -0.00681
N     2.02160  -0.24026   0.41741
C     1.45854  -1.31099  -0.17586
O     2.02526  -2.05111  -0.99583
C     0.05750  -1.57330   0.20573
C    -0.79842  -2.34435  -0.60932
N    -1.46040  -3.05649  -1.25722
O    -0.38805  -1.00812   1.31295
N    -1.65330  -0.95142   1.60080
C    -1.78636  -0.33123   2.89797
C    -1.61150   1.22721  -0.04381
C    -0.85475   2.11755   0.92169
O    -1.44663   3.18919   1.21739
O     0.25301   1.74331   1.40553
C    -1.19093   0.67877  -1.18032
C     0.15076   0.91549  -1.85181
O     0.49841   0.07138  -2.72773
O     0.80114   1.95454  -1.54046
H     3.32941   0.59089  -1.03463
H     4.06153  -0.62866   0.04300
H     3.67887   0.99935   0.67054
H     1.38355   0.47637   0.81039
H    -2.69996   0.32864   2.88802
H    -1.96022  -1.13291   3.58415
H    -0.92250   0.28114   3.18794
H    -2.67137   1.04127   0.26373
H    -1.81079  -0.06412  -1.67759
27

C     3.33194   0.20697  -0.00763
N     2.02135  -0.24081   0.41864
C     1.46031  -1.31423  -0.17228
O     2.02728  -2.05158  -0.99516
C     0.06381  -1.58816   0.21657
C    -0.79732  -2.34528  -0.60698
N    -1.46125  -3.05299  -1.25838
O    -0.38987  -1.00768   1.31353
N    -1.65252  -0.97468   1.61301
C    -1.78401  -0.33630   2.90282
C    -1.61267   1.24280  -0.05837
C    -0.85461   2.12206   0.91759
O    -1.44567   3.19322   1.21978
O     0.25022   1.74252   1.40396
C    -1.20161   0.69778  -1.19415
C     0.14917   0.91892  -1.85537
O     0.49875   0.06967  -2.72642
O     0.80576   1.95458  -1.54238
H     3.32849   0.59131  -1.03481
H     4.06135  -0.62823   0.04237
H     3.67857   0.99965   0.67025
H     1.38319   0.47622   0.81027
H    -2.69881   0.32803   2.88741
H    -1.96055  -1.13191   3.58847
H    -0.92130   0.27987   3.18738
H    -2.67045   1.03990   0.26567
H    -1.81346  -0.06026  -1.68039
