12

N -4.203731272 0.140446127 1.314758545
C -1.917550565 0.056189343 0.602262160
C -0.333883766 2.252477025 -0.091008076
N 1.937143038 2.074492925 -0.800925042
C 3.073307101 -0.398858616 -0.953829567
N 1.660429043 -2.632349979 -0.303053092
C -0.609744625 -2.400794694 0.403202189
H -4.852837154 1.956284282 1.357047611
H 3.761014437 -0.639035758 -2.889971353
H -1.198644324 4.124299639 0.019916580
H 4.771582880 -0.369344458 0.226544790
H -1.700000872 -4.074639129 0.899862693

