10

C -3.009060929 0.442699979 0.054991106
C -0.365500396 -0.308857197 0.523827131
N 0.426961357 -2.517519108 1.054754737
O 3.050222868 -2.245249598 1.321718973
C 3.687241041 0.184361662 0.921882764
O 5.725342905 1.085133785 0.994289567
O 1.480532143 1.450368240 0.402938686
H -3.186065075 1.258373048 -1.829000777
H -4.218503752 -1.210844603 0.211061262
H -3.591170161 1.861533792 1.431327586

