10

C -3.257901067 0.335522385 0.039675669
C -0.838141630 -0.833004220 0.554589037
N 0.633864541 -2.434992123 1.043189897
O 3.018191065 -2.431877268 1.342787738
C 3.935506947 0.762470476 0.854396941
O 6.138343513 0.883757861 1.109558174
O 1.980908509 1.875940950 0.397055591
H -3.258813086 1.151006992 -1.850118353
H -4.718605768 -1.114411331 0.166019149
H -3.633353025 1.805586277 1.430637061

