17

C 4.318742631 -0.421784981 0.063089565
C 2.108162440 1.356475610 0.552657359
C -0.043861696 0.033595249 1.875929423
O -2.237528782 1.596658912 2.385355726
C -3.719679626 -0.285081967 1.176948151
C -3.418828821 -0.143829720 -1.645899752
C -1.596974856 -2.100707584 0.667400679
H 3.753659302 -1.996314520 -1.143934409
H 5.043075051 -1.217962483 1.824019554
H 5.870713715 0.569221092 -0.862581552
H 1.429877807 2.166156264 -1.223741474
H 2.699105272 2.949454923 1.728874186
H 0.611493718 -0.779854048 3.670021667
H -5.562416463 -0.674784236 1.983595114
H -4.850210529 -1.162014080 -2.699263008
H -2.877820489 1.698652401 -2.360196498
H -1.653976725 -1.576113526 -1.950762861

