13

C 1.324368955 1.375812365 -0.052132234
C -1.344049603 1.558083593 -1.011511114
C -2.847254868 -0.351071845 -1.622185182
O 0.801874082 -2.003910558 3.049992473
C 2.121382302 -1.227148726 0.862265571
H 2.610325920 1.990120867 -1.555714613
H 1.574051665 2.725549590 1.494784986
H -2.069850435 3.468354517 -1.224299264
H -0.975915609 -1.822465707 2.734347096
H -4.741920000 -0.020129155 -2.320371370
H -2.257549164 -2.310748507 -1.483905965
H 4.115155424 -1.193440509 1.385872681
H 1.915836659 -2.622023438 -0.661321468

