14

C 2.332826839 2.042568402 -1.345452649
C 0.568440654 1.931343960 0.898050238
C -2.054530425 0.798076450 0.309961213
C -1.289770546 -1.952514940 -0.266513537
C 1.510986194 -1.823399478 0.391200690
O 1.724170658 -0.074240045 2.339293576
H 1.230425227 2.504612260 -3.065670699
H 2.644564753 -0.749623060 -1.297035711
H 0.537606749 3.719728551 1.929014759
H -3.285206608 0.910535809 1.958627863
H -2.979052418 1.743170607 -1.268675949
H -2.242875006 -3.286706748 0.981722662
H -1.619481475 -2.538368967 -2.212741093
H 2.560419122 -3.561236578 0.730605007

