15

C -3.417611478 0.849536508 0.829982870
C -1.675057904 -0.457544288 -1.049422573
C 0.584318171 -1.748245051 0.190644604
N 2.233683888 0.000668566 1.553607455
C 4.086794112 1.410345428 0.641199041
O 4.269903320 0.995150867 -1.864455195
H -5.038855085 1.697201299 -0.120180516
H -4.142187805 -0.484618904 2.232318712
H -2.432740854 2.358757660 1.835402187
H -0.978050130 0.903004363 -2.436824987
H -2.725981241 -1.893419160 -2.102389119
H 1.713060694 -2.720910860 -1.230633494
H -0.061780268 -3.163918807 1.548849049
H 1.941873117 0.201827078 3.417791531
H 5.644832994 2.014824369 -2.450362947

