17

C 3.497968321 -0.894096439 0.206262492
C 1.810343606 -1.566112963 2.375071288
C -0.943846295 3.923052821 -2.919957111
C -1.858973931 2.221441279 -1.331323733
O -1.799462430 -0.285949427 -1.830240853
C -2.495162571 -1.886486605 0.200025073
C -0.663432935 -1.988640002 2.373503288
H 5.165808927 -2.111224911 0.216123706
H 4.174019637 1.049312685 0.395790192
H 2.560552178 -1.066190301 -1.612387046
H 2.755498215 -1.723970555 4.192672198
H -1.084739834 5.908245415 -2.468270332
H -0.072584815 3.367795633 -4.684965166
H -2.726050783 2.746705527 0.457393487
H -2.723770904 -3.758702659 -0.640321792
H -4.356176801 -1.314094023 0.913261720
H -1.540771642 -2.500466144 4.158519159

