14

C -3.780366518 -1.334104238 1.821642373
C -1.377131375 -0.275033405 0.768592112
C 0.111850886 -1.589621270 -0.759213930
O 2.361489940 -0.874260494 -1.793584966
C 3.501506096 1.337887584 -0.884096443
O 2.298255641 3.546921544 -1.664213843
H -3.739663045 -1.377342476 3.886573264
H -5.405859948 -0.184122347 1.272760686
H -4.109998419 -3.259489230 1.158953423
H -0.900524891 1.656312350 1.257177910
H -0.361228632 -3.491270810 -1.361611149
H 2.377060886 3.641286190 -3.473914035
H 3.470372839 1.360791480 1.182242956
H 5.446497583 1.243770662 -1.573471444

