14

C -3.592726483 -0.667176614 1.113396718
C -0.804998120 -0.514195083 1.136829039
C 0.726887047 -1.698136071 -0.710696289
O 3.187771195 -1.129999342 -0.729250489
C 3.340953793 1.891432717 -0.839792060
O 1.080219893 2.835509446 -1.008795502
H -4.231718456 -1.390326841 2.940215013
H -4.400313396 1.220584838 0.902552057
H -4.301474918 -1.880131947 -0.393138302
H 0.074463430 0.583165759 2.621187707
H 0.128399293 -3.464883166 -1.580321096
H -0.218406722 -0.019844354 -1.902621824
H 4.403580487 2.301655239 0.904089481
H 4.546638480 2.131947742 -2.510436944

