16

O -3.174234331 -0.452204659 2.564851740
C -2.430003132 -1.156891411 0.122678696
C -1.736432297 1.149575449 -1.520821274
C 1.432502372 0.209835642 -0.233127386
C 3.530467982 1.824083766 -0.920916869
N 2.202453707 1.887695274 1.677905476
C 0.214069819 -2.342476876 0.039078894
H -2.010543742 0.809126813 3.178306143
H -3.946927677 -2.311578305 -0.651687342
H -2.525440443 2.944511608 -0.899546031
H -2.031863009 0.806151439 -3.534562546
H 0.719073180 1.857259628 -1.949306468
H 5.351014994 0.864108149 -0.953367510
H 3.117256726 0.814922943 2.986684531
H 0.499880842 -3.504461118 -1.639683044
H 0.771441573 -3.391230164 1.721377208

