11

O -3.608731462 -2.978581102 0.177564393
C -2.956759867 -0.586757788 0.017560053
C -0.514018602 0.161549795 -0.013561676
C 0.615000104 2.620160546 -0.176357122
N 3.062889116 2.389214735 -0.142857739
C 3.443699790 -0.207478549 0.040809940
N 1.433287742 -1.603193774 0.124157463
H -4.542535904 0.705058537 -0.086676125
H -0.331352534 4.429064540 -0.306241098
H 5.335746385 -0.979474927 0.107043631
H -2.051471922 -3.955550535 0.257953569

