26

C    -2.21052   1.53101   2.03165
N    -1.78449   1.14043   0.70149
C    -2.12280  -0.04741   0.19026
O    -2.97697  -0.78933   0.67264
C    -1.26114  -0.58740  -1.01040
N    -0.92415   0.45049  -1.99465
N    -0.01280   1.22704  -1.42179
C     1.19925  -0.29984  -0.65364
F     1.96540  -0.59649  -1.74202
C     1.84315   0.54906   0.33124
O     2.84649   1.21663   0.10442
O     1.13809   0.63465   1.47623
C     1.50815   1.67664   2.38431
C    -0.02894  -1.21518  -0.50619
F    -0.11888  -1.66068   0.82390
F     0.28080  -2.41212  -1.18797
H    -3.30068   1.56325   2.10184
H    -1.83774   0.81314   2.78928
H    -1.80117   2.52137   2.25853
H    -0.98163   1.61355   0.27176
H    -1.99523  -1.26983  -1.60004
H    -0.78778   0.13270  -2.94790
H     0.47625   1.72184  -2.23288
H     2.55058   1.55859   2.71476
H     0.83034   1.58464   3.24233
H     1.38433   2.66285   1.91252
26

C    -2.20952   1.53038   2.03165
N    -1.78345   1.14056   0.70150
C    -2.12459  -0.04600   0.18760
O    -2.97652  -0.78952   0.67333
C    -1.28416  -0.57338  -1.02186
N    -0.92099   0.44931  -1.99198
N    -0.02044   1.23751  -1.42800
C     1.20771  -0.31194  -0.64735
F     1.96464  -0.59354  -1.74298
C     1.84293   0.54911   0.33206
O     2.84458   1.21745   0.10329
O     1.13810   0.63480   1.47627
C     1.50814   1.67675   2.38454
C    -0.00152  -1.22864  -0.49515
F    -0.11965  -1.66285   0.82573
F     0.27884  -2.41436  -1.18733
H    -3.30042   1.56303   2.10183
H    -1.83754   0.81298   2.78936
H    -1.80094   2.52119   2.25866
H    -0.98185   1.61395   0.27124
H    -1.99899  -1.26727  -1.60368
H    -0.78852   0.13330  -2.94777
H     0.47323   1.72345  -2.23563
H     2.55061   1.55862   2.71473
H     0.83036   1.58460   3.24239
H     1.38424   2.66284   1.91255
26

C    -2.20851   1.52975   2.03165
N    -1.78241   1.14069   0.70152
C    -2.12638  -0.04458   0.18493
O    -2.97607  -0.78971   0.67402
C    -1.30718  -0.55935  -1.03331
N    -0.91783   0.44813  -1.98931
N    -0.02808   1.24798  -1.43422
C     1.21616  -0.32403  -0.64107
F     1.96388  -0.59058  -1.74394
C     1.84271   0.54916   0.33287
O     2.84268   1.21827   0.10216
O     1.13811   0.63495   1.47630
C     1.50813   1.67686   2.38478
C     0.02589  -1.24210  -0.48411
F    -0.12042  -1.66502   0.82756
F     0.27688  -2.41661  -1.18669
H    -3.30015   1.56282   2.10183
H    -1.83735   0.81282   2.78945
H    -1.80070   2.52101   2.25879
H    -0.98207   1.61435   0.27071
H    -2.00274  -1.26472  -1.60731
H    -0.78926   0.13391  -2.94764
H     0.47020   1.72505  -2.23837
H     2.55063   1.55865   2.71470
H     0.83038   1.58456   3.24246
H     1.38414   2.66283   1.91258
26

C    -2.20751   1.52912   2.03164
N    -1.78138   1.14082   0.70153
C    -2.12817  -0.04317   0.18227
O    -2.97562  -0.78990   0.67471
C    -1.33020  -0.54533  -1.04477
N    -0.91467   0.44696  -1.98664
N    -0.03572   1.25845  -1.44044
C     1.22461  -0.33612  -0.63479
F     1.96311  -0.58762  -1.74489
C     1.84249   0.54921   0.33369
O     2.84077   1.21910   0.10103
O     1.13812   0.63511   1.47634
C     1.50812   1.67698   2.38502
C     0.05331  -1.25556  -0.47306
F    -0.12119  -1.66719   0.82940
F     0.27492  -2.41885  -1.18605
H    -3.29989   1.56260   2.10182
H    -1.83715   0.81266   2.78953
H    -1.80047   2.52083   2.25892
H    -0.98229   1.61475   0.27019
H    -2.00649  -1.26216  -1.61094
H    -0.79001   0.13452  -2.94751
H     0.46717   1.72666  -2.24111
H     2.55065   1.55867   2.71467
H     0.83040   1.58452   3.24252
H     1.38404   2.66283   1.91261
26

C    -2.20651   1.52849   2.03164
N    -1.78034   1.14095   0.70155
C    -2.12996  -0.04175   0.17961
O    -2.97517  -0.79009   0.67540
C    -1.35322  -0.53130  -1.05623
N    -0.91152   0.44578  -1.98397
N    -0.04336   1.26892  -1.44665
C     1.23307  -0.34822  -0.62850
F     1.96235  -0.58467  -1.74585
C     1.84228   0.54926   0.33451
O     2.83887   1.21992   0.09990
O     1.13813   0.63526   1.47637
C     1.50811   1.67709   2.38525
C     0.08073  -1.26901  -0.46202
F    -0.12196  -1.66935   0.83123
F     0.27296  -2.42110  -1.18541
H    -3.29963   1.56238   2.10182
H    -1.83695   0.81249   2.78962
H    -1.80024   2.52066   2.25904
H    -0.98251   1.61515   0.26967
H    -2.01024  -1.25960  -1.61458
H    -0.79075   0.13513  -2.94739
H     0.46414   1.72827  -2.24386
H     2.55067   1.55870   2.71464
H     0.83042   1.58447   3.24258
H     1.38394   2.66282   1.91264
26

C    -2.20550   1.52786   2.03163
N    -1.77930   1.14107   0.70157
C    -2.13175  -0.04033   0.17695
O    -2.97472  -0.79028   0.67609
C    -1.37624  -0.51728  -1.06768
N    -0.90836   0.44460  -1.98130
N    -0.05100   1.27939  -1.45287
C     1.24152  -0.36031  -0.62222
F     1.96159  -0.58171  -1.74681
C     1.84206   0.54931   0.33533
O     2.83697   1.22074   0.09877
O     1.13814   0.63541   1.47641
C     1.50811   1.67720   2.38549
C     0.10815  -1.28247  -0.45098
F    -0.12273  -1.67152   0.83306
F     0.27100  -2.42335  -1.18477
H    -3.29936   1.56217   2.10181
H    -1.83675   0.81233   2.78970
H    -1.80001   2.52048   2.25917
H    -0.98274   1.61555   0.26914
H    -2.01400  -1.25704  -1.61821
H    -0.79149   0.13574  -2.94726
H     0.46111   1.72988  -2.24660
H     2.55070   1.55873   2.71461
H     0.83043   1.58443   3.24265
H     1.38385   2.66281   1.91267
26

C    -2.20450   1.52723   2.03163
N    -1.77826   1.14120   0.70158
C    -2.13354  -0.03892   0.17428
O    -2.97427  -0.79047   0.67677
C    -1.39926  -0.50325  -1.07914
N    -0.90520   0.44342  -1.97863
N    -0.05864   1.28986  -1.45908
C     1.24997  -0.37240  -0.61593
F     1.96083  -0.57876  -1.74776
C     1.84184   0.54937   0.33615
O     2.83506   1.22156   0.09764
O     1.13815   0.63556   1.47644
C     1.50810   1.67731   2.38572
C     0.13557  -1.29593  -0.43993
F    -0.12350  -1.67369   0.83489
F     0.26904  -2.42559  -1.18413
H    -3.29910   1.56195   2.10181
H    -1.83655   0.81217   2.78978
H    -1.79978   2.52030   2.25930
H    -0.98296   1.61595   0.26862
H    -2.01775  -1.25449  -1.62184
H    -0.79224   0.13634  -2.94713
H     0.45808   1.73149  -2.24935
H     2.55072   1.55876   2.71458
H     0.83045   1.58439   3.24271
H     1.38375   2.66280   1.91270
26

C    -2.20350   1.52660   2.03162
N    -1.77723   1.14133   0.70160
C    -2.13533  -0.03750   0.17162
O    -2.97382  -0.79066   0.67746
C    -1.42228  -0.48922  -1.09060
N    -0.90204   0.44224  -1.97596
N    -0.06628   1.30033  -1.46530
C     1.25843  -0.38450  -0.60965
F     1.96007  -0.57580  -1.74872
C     1.84162   0.54942   0.33697
O     2.83316   1.22239   0.09651
O     1.13816   0.63571   1.47648
C     1.50809   1.67743   2.38596
C     0.16299  -1.30939  -0.42889
F    -0.12427  -1.67586   0.83672
F     0.26708  -2.42784  -1.18348
H    -3.29883   1.56173   2.10180
H    -1.83636   0.81201   2.78987
H    -1.79955   2.52012   2.25943
H    -0.98318   1.61634   0.26809
H    -2.02150  -1.25193  -1.62548
H    -0.79298   0.13695  -2.94700
H     0.45505   1.73310  -2.25209
H     2.55074   1.55879   2.71456
H     0.83047   1.58434   3.24277
H     1.38365   2.66279   1.91273
26

C    -2.20249   1.52597   2.03162
N    -1.77619   1.14146   0.70161
C    -2.13712  -0.03608   0.16896
O    -2.97336  -0.79085   0.67815
C    -1.44530  -0.47520  -1.10205
N    -0.89888   0.44106  -1.97329
N    -0.07392   1.31080  -1.47151
C     1.26688  -0.39659  -0.60337
F     1.95931  -0.57285  -1.74968
C     1.84140   0.54947   0.33778
O     2.83125   1.22321   0.09538
O     1.13817   0.63587   1.47651
C     1.50808   1.67754   2.38619
C     0.19041  -1.32284  -0.41785
F    -0.12504  -1.67803   0.83856
F     0.26512  -2.43008  -1.18284
H    -3.29857   1.56152   2.10180
H    -1.83616   0.81184   2.78995
H    -1.79932   2.51995   2.25955
H    -0.98340   1.61674   0.26757
H    -2.02526  -1.24937  -1.62911
H    -0.79372   0.13756  -2.94687
H     0.45203   1.73470  -2.25484
H     2.55077   1.55881   2.71453
H     0.83049   1.58430   3.24284
H     1.38355   2.66278   1.91276
26

C    -2.20149   1.52534   2.03162
N    -1.77515   1.14159   0.70163
C    -2.13891  -0.03467   0.16630
O    -2.97291  -0.79104   0.67884
C    -1.46832  -0.46117  -1.11351
N    -0.89573   0.43988  -1.97062
N    -0.08156   1.32127  -1.47773
C     1.27534  -0.40868  -0.59708
F     1.95855  -0.56989  -1.75064
C     1.84118   0.54952   0.33860
O     2.82935   1.22403   0.09425
O     1.13818   0.63602   1.47655
C     1.50807   1.67765   2.38643
C     0.21782  -1.33630  -0.40680
F    -0.12582  -1.68019   0.84039
F     0.26316  -2.43233  -1.18220
H    -3.29831   1.56130   2.10179
H    -1.83596   0.81168   2.79003
H    -1.79909   2.51977   2.25968
H    -0.98362   1.61714   0.26705
H    -2.02901  -1.24681  -1.63274
H    -0.79447   0.13817  -2.94674
H     0.44900   1.73631  -2.25758
H     2.55079   1.55884   2.71450
H     0.83051   1.58426   3.24290
H     1.38346   2.66277   1.91279
26

C    -2.20049   1.52470   2.03161
N    -1.77411   1.14172   0.70164
C    -2.14070  -0.03325   0.16364
O    -2.97246  -0.79123   0.67953
C    -1.49134  -0.44715  -1.12497
N    -0.89257   0.43870  -1.96795
N    -0.08920   1.33174  -1.48395
C     1.28379  -0.42078  -0.59080
F     1.95779  -0.56693  -1.75159
C     1.84096   0.54957   0.33942
O     2.82745   1.22486   0.09312
O     1.13819   0.63617   1.47658
C     1.50806   1.67776   2.38666
C     0.24524  -1.34976  -0.39576
F    -0.12659  -1.68236   0.84222
F     0.26120  -2.43457  -1.18156
H    -3.29804   1.56108   2.10178
H    -1.83576   0.81152   2.79012
H    -1.79886   2.51959   2.25981
H    -0.98384   1.61754   0.26652
H    -2.03276  -1.24426  -1.63638
H    -0.79521   0.13877  -2.94662
H     0.44597   1.73792  -2.26033
H     2.55081   1.55887   2.71447
H     0.83052   1.58421   3.24297
H     1.38336   2.66276   1.91282
26

C    -2.19948   1.52407   2.03161
N    -1.77308   1.14185   0.70166
C    -2.14250  -0.03183   0.16097
O    -2.97201  -0.79142   0.68022
C    -1.51436  -0.43312  -1.13642
N    -0.88941   0.43752  -1.96527
N    -0.09684   1.34221  -1.49016
C     1.29224  -0.43287  -0.58451
F     1.95703  -0.56398  -1.75255
C     1.84074   0.54962   0.34024
O     2.82554   1.22568   0.09199
O     1.13820   0.63632   1.47662
C     1.50806   1.67788   2.38690
C     0.27266  -1.36322  -0.38472
F    -0.12736  -1.68453   0.84405
F     0.25924  -2.43682  -1.18092
H    -3.29778   1.56087   2.10178
H    -1.83556   0.81136   2.79020
H    -1.79862   2.51941   2.25994
H    -0.98406   1.61794   0.26600
H    -2.03651  -1.24170  -1.64001
H    -0.79595   0.13938  -2.94649
H     0.44294   1.73953  -2.26307
H     2.55084   1.55890   2.71444
H     0.83054   1.58417   3.24303
H     1.38326   2.66275   1.91285
26

C    -2.19848   1.52344   2.03160
N    -1.77204   1.14197   0.70167
C    -2.14429  -0.03042   0.15831
O    -2.97156  -0.79161   0.68090
C    -1.53738  -0.41909  -1.14788
N    -0.88625   0.43634  -1.96260
N    -0.10447   1.35268  -1.49638
C     1.30070  -0.44496  -0.57823
F     1.95627  -0.56102  -1.75351
C     1.84052   0.54967   0.34106
O     2.82364   1.22650   0.09086
O     1.13821   0.63648   1.47665
C     1.50805   1.67799   2.38713
C     0.30008  -1.37668  -0.37367
F    -0.12813  -1.68670   0.84588
F     0.25728  -2.43906  -1.18028
H    -3.29751   1.56065   2.10177
H    -1.83536   0.81119   2.79028
H    -1.79839   2.51923   2.26006
H    -0.98428   1.61834   0.26547
H    -2.04027  -1.23914  -1.64364
H    -0.79670   0.13999  -2.94636
H     0.43991   1.74114  -2.26582
H     2.55086   1.55893   2.71441
H     0.83056   1.58413   3.24309
H     1.38316   2.66274   1.91288
26

C    -2.19748   1.52281   2.03160
N    -1.77100   1.14210   0.70169
C    -2.14608  -0.02900   0.15565
O    -2.97111  -0.79180   0.68159
C    -1.56040  -0.40507  -1.15934
N    -0.88309   0.43516  -1.95993
N    -0.11211   1.36315  -1.50259
C     1.30915  -0.45706  -0.57195
F     1.95551  -0.55807  -1.75447
C     1.84030   0.54973   0.34188
O     2.82174   1.22733   0.08973
O     1.13822   0.63663   1.47669
C     1.50804   1.67810   2.38737
C     0.32750  -1.39013  -0.36263
F    -0.12890  -1.68887   0.84772
F     0.25532  -2.44131  -1.17964
H    -3.29725   1.56043   2.10177
H    -1.83517   0.81103   2.79037
H    -1.79816   2.51906   2.26019
H    -0.98450   1.61874   0.26495
H    -2.04402  -1.23659  -1.64728
H    -0.79744   0.14060  -2.94623
H     0.43688   1.74274  -2.26856
H     2.55088   1.55895   2.71438
H     0.83058   1.58408   3.24316
H     1.38307   2.66273   1.91291
26

C    -2.19647   1.52218   2.03159
N    -1.76996   1.14223   0.70171
C    -2.14787  -0.02758   0.15299
O    -2.97066  -0.79199   0.68228
C    -1.58342  -0.39104  -1.17079
N    -0.87994   0.43398  -1.95726
N    -0.11975   1.37362  -1.50881
C     1.31760  -0.46915  -0.56566
F     1.95474  -0.55511  -1.75542
C     1.84008   0.54978   0.34269
O     2.81983   1.22815   0.08860
O     1.13823   0.63678   1.47673
C     1.50803   1.67822   2.38760
C     0.35492  -1.40359  -0.35159
F    -0.12967  -1.69103   0.84955
F     0.25336  -2.44355  -1.17900
H    -3.29699   1.56022   2.10176
H    -1.83497   0.81087   2.79045
H    -1.79793   2.51888   2.26032
H    -0.98473   1.61914   0.26443
H    -2.04777  -1.23403  -1.65091
H    -0.79819   0.14121  -2.94610
H     0.43386   1.74435  -2.27131
H     2.55091   1.55898   2.71435
H     0.83059   1.58404   3.24322
H     1.38297   2.66272   1.91294
26

C    -2.19547   1.52155   2.03159
N    -1.76893   1.14236   0.70172
C    -2.14966  -0.02617   0.15033
O    -2.97021  -0.79218   0.68297
C    -1.60645  -0.37702  -1.18225
N    -0.87678   0.43280  -1.95459
N    -0.12739   1.38409  -1.51503
C     1.32606  -0.48125  -0.55938
F     1.95398  -0.55216  -1.75638
C     1.83986   0.54983   0.34351
O     2.81793   1.22897   0.08747
O     1.13824   0.63693   1.47676
C     1.50802   1.67833   2.38784
C     0.38233  -1.41705  -0.34054
F    -0.13044  -1.69320   0.85138
F     0.25140  -2.44580  -1.17836
H    -3.29672   1.56000   2.10176
H    -1.83477   0.81071   2.79054
H    -1.79770   2.51870   2.26045
H    -0.98495   1.61954   0.26390
H    -2.05153  -1.23147  -1.65454
H    -0.79893   0.14181  -2.94598
H     0.43083   1.74596  -2.27405
H     2.55093   1.55901   2.71432
H     0.83061   1.58400   3.24329
H     1.38287   2.66271   1.91297
26

C    -2.19447   1.52092   2.03159
N    -1.76789   1.14249   0.70174
C    -2.15145  -0.02475   0.14766
O    -2.96976  -0.79237   0.68366
C    -1.62947  -0.36299  -1.19370
N    -0.87362   0.43162  -1.95192
N    -0.13503   1.39456  -1.52124
C     1.33451  -0.49334  -0.55310
F     1.95322  -0.54920  -1.75734
C     1.83964   0.54988   0.34433
O     2.81602   1.22980   0.08634
O     1.13825   0.63709   1.47680
C     1.50801   1.67844   2.38807
C     0.40975  -1.43051  -0.32950
F    -0.13121  -1.69537   0.85321
F     0.24944  -2.44804  -1.17772
H    -3.29646   1.55978   2.10175
H    -1.83457   0.81054   2.79062
H    -1.79747   2.51852   2.26057
H    -0.98517   1.61994   0.26338
H    -2.05528  -1.22891  -1.65818
H    -0.79967   0.14242  -2.94585
H     0.42780   1.74757  -2.27680
H     2.55095   1.55904   2.71429
H     0.83063   1.58396   3.24335
H     1.38277   2.66270   1.91300
26

C    -2.19346   1.52029   2.03158
N    -1.76685   1.14262   0.70175
C    -2.15324  -0.02333   0.14500
O    -2.96931  -0.79256   0.68435
C    -1.65249  -0.34897  -1.20516
N    -0.87046   0.43044  -1.94925
N    -0.14267   1.40503  -1.52746
C     1.34296  -0.50543  -0.54681
F     1.95246  -0.54624  -1.75829
C     1.83942   0.54993   0.34515
O     2.81412   1.23062   0.08521
O     1.13826   0.63724   1.47683
C     1.50801   1.67855   2.38831
C     0.43717  -1.44396  -0.31846
F    -0.13198  -1.69754   0.85504
F     0.24748  -2.45029  -1.17707
H    -3.29620   1.55956   2.10175
H    -1.83437   0.81038   2.79070
H    -1.79724   2.51835   2.26070
H    -0.98539   1.62034   0.26285
H    -2.05903  -1.22636  -1.66181
H    -0.80042   0.14303  -2.94572
H     0.42477   1.74918  -2.27954
H     2.55098   1.55907   2.71426
H     0.83065   1.58391   3.24341
H     1.38268   2.66269   1.91303
26

C    -2.19246   1.51966   2.03158
N    -1.76581   1.14274   0.70177
C    -2.15503  -0.02192   0.14234
O    -2.96886  -0.79275   0.68503
C    -1.67551  -0.33494  -1.21662
N    -0.86730   0.42927  -1.94658
N    -0.15031   1.41550  -1.53367
C     1.35142  -0.51753  -0.54053
F     1.95170  -0.54329  -1.75925
C     1.83920   0.54998   0.34597
O     2.81222   1.23144   0.08408
O     1.13827   0.63739   1.47687
C     1.50800   1.67867   2.38854
C     0.46459  -1.45742  -0.30741
F    -0.13275  -1.69971   0.85687
F     0.24552  -2.45253  -1.17643
H    -3.29593   1.55935   2.10174
H    -1.83418   0.81022   2.79079
H    -1.79701   2.51817   2.26083
H    -0.98561   1.62074   0.26233
H    -2.06278  -1.22380  -1.66544
H    -0.80116   0.14364  -2.94559
H     0.42174   1.75079  -2.28229
H     2.55100   1.55910   2.71423
H     0.83067   1.58387   3.24348
H     1.38258   2.66268   1.91306
26

C    -2.19146   1.51903   2.03157
N    -1.76478   1.14287   0.70178
C    -2.15682  -0.02050   0.13968
O    -2.96841  -0.79294   0.68572
C    -1.69853  -0.32091  -1.22807
N    -0.86414   0.42809  -1.94391
N    -0.15795   1.42597  -1.53989
C     1.35987  -0.52962  -0.53424
F     1.95094  -0.54033  -1.76021
C     1.83898   0.55003   0.34679
O     2.81031   1.23227   0.08295
O     1.13828   0.63754   1.47690
C     1.50799   1.67878   2.38878
C     0.49201  -1.47088  -0.29637
F    -0.13352  -1.70188   0.85871
F     0.24356  -2.45478  -1.17579
H    -3.29567   1.55913   2.10173
H    -1.83398   0.81006   2.79087
H    -1.79678   2.51799   2.26096
H    -0.98583   1.62114   0.26181
H    -2.06654  -1.22124  -1.66908
H    -0.80190   0.14425  -2.94546
H     0.41871   1.75239  -2.28503
H     2.55102   1.55912   2.71420
H     0.83068   1.58383   3.24354
H     1.38248   2.66267   1.91309
26

C    -2.19045   1.51840   2.03157
N    -1.76374   1.14300   0.70180
C    -2.15861  -0.01909   0.13702
O    -2.96796  -0.79313   0.68641
C    -1.72155  -0.30689  -1.23953
N    -0.86099   0.42691  -1.94124
N    -0.16559   1.43644  -1.54610
C     1.36833  -0.54171  -0.52796
F     1.95018  -0.53738  -1.76117
C     1.83876   0.55008   0.34760
O     2.80841   1.23309   0.08182
O     1.13829   0.63770   1.47694
C     1.50798   1.67889   2.38901
C     0.51943  -1.48434  -0.28533
F    -0.13429  -1.70404   0.86054
F     0.24160  -2.45703  -1.17515
H    -3.29540   1.55891   2.10173
H    -1.83378   0.80989   2.79095
H    -1.79655   2.51781   2.26108
H    -0.98605   1.62154   0.26128
H    -2.07029  -1.21868  -1.67271
H    -0.80265   0.14485  -2.94533
H     0.41568   1.75400  -2.28777
H     2.55105   1.55915   2.71417
H     0.83070   1.58378   3.24361
H     1.38238   2.66266   1.91312
26

C    -2.19146   1.51903   2.03157
N    -1.76478   1.14287   0.70178
C    -2.15682  -0.02050   0.13968
O    -2.96841  -0.79294   0.68572
C    -1.69853  -0.32091  -1.22807
N    -0.86414   0.42809  -1.94391
N    -0.15795   1.42597  -1.53989
C     1.35987  -0.52962  -0.53424
F     1.95094  -0.54033  -1.76021
C     1.83898   0.55003   0.34679
O     2.81031   1.23227   0.08295
O     1.13828   0.63754   1.47690
C     1.50799   1.67878   2.38878
C     0.49201  -1.47088  -0.29637
F    -0.13352  -1.70188   0.85871
F     0.24356  -2.45478  -1.17579
H    -3.29567   1.55913   2.10173
H    -1.83398   0.81006   2.79087
H    -1.79678   2.51799   2.26096
H    -0.98583   1.62114   0.26181
H    -2.06654  -1.22124  -1.66908
H    -0.80190   0.14425  -2.94546
H     0.41871   1.75239  -2.28503
H     2.55102   1.55912   2.71420
H     0.83068   1.58383   3.24354
H     1.38248   2.66267   1.91309
26

C    -2.19246   1.51966   2.03158
N    -1.76581   1.14274   0.70177
C    -2.15503  -0.02192   0.14234
O    -2.96886  -0.79275   0.68503
C    -1.67551  -0.33494  -1.21662
N    -0.86730   0.42927  -1.94658
N    -0.15031   1.41550  -1.53367
C     1.35142  -0.51753  -0.54053
F     1.95170  -0.54329  -1.75925
C     1.83920   0.54998   0.34597
O     2.81222   1.23144   0.08408
O     1.13827   0.63739   1.47687
C     1.50800   1.67867   2.38854
C     0.46459  -1.45742  -0.30741
F    -0.13275  -1.69971   0.85687
F     0.24552  -2.45253  -1.17643
H    -3.29593   1.55935   2.10174
H    -1.83418   0.81022   2.79079
H    -1.79701   2.51817   2.26083
H    -0.98561   1.62074   0.26233
H    -2.06278  -1.22380  -1.66544
H    -0.80116   0.14364  -2.94559
H     0.42174   1.75079  -2.28229
H     2.55100   1.55910   2.71423
H     0.83067   1.58387   3.24348
H     1.38258   2.66268   1.91306
26

C    -2.19346   1.52029   2.03158
N    -1.76685   1.14262   0.70175
C    -2.15324  -0.02333   0.14500
O    -2.96931  -0.79256   0.68435
C    -1.65249  -0.34897  -1.20516
N    -0.87046   0.43044  -1.94925
N    -0.14267   1.40503  -1.52746
C     1.34296  -0.50543  -0.54681
F     1.95246  -0.54624  -1.75829
C     1.83942   0.54993   0.34515
O     2.81412   1.23062   0.08521
O     1.13826   0.63724   1.47683
C     1.50801   1.67855   2.38831
C     0.43717  -1.44396  -0.31846
F    -0.13198  -1.69754   0.85504
F     0.24748  -2.45029  -1.17707
H    -3.29620   1.55956   2.10175
H    -1.83437   0.81038   2.79070
H    -1.79724   2.51835   2.26070
H    -0.98539   1.62034   0.26285
H    -2.05903  -1.22636  -1.66181
H    -0.80042   0.14303  -2.94572
H     0.42477   1.74918  -2.27954
H     2.55098   1.55907   2.71426
H     0.83065   1.58391   3.24341
H     1.38268   2.66269   1.91303
26

C    -2.19447   1.52092   2.03159
N    -1.76789   1.14249   0.70174
C    -2.15145  -0.02475   0.14766
O    -2.96976  -0.79237   0.68366
C    -1.62947  -0.36299  -1.19370
N    -0.87362   0.43162  -1.95192
N    -0.13503   1.39456  -1.52124
C     1.33451  -0.49334  -0.55310
F     1.95322  -0.54920  -1.75734
C     1.83964   0.54988   0.34433
O     2.81602   1.22980   0.08634
O     1.13825   0.63709   1.47680
C     1.50801   1.67844   2.38807
C     0.40975  -1.43051  -0.32950
F    -0.13121  -1.69537   0.85321
F     0.24944  -2.44804  -1.17772
H    -3.29646   1.55978   2.10175
H    -1.83457   0.81054   2.79062
H    -1.79747   2.51852   2.26057
H    -0.98517   1.61994   0.26338
H    -2.05528  -1.22891  -1.65818
H    -0.79967   0.14242  -2.94585
H     0.42780   1.74757  -2.27680
H     2.55095   1.55904   2.71429
H     0.83063   1.58396   3.24335
H     1.38277   2.66270   1.91300
26

C    -2.19547   1.52155   2.03159
N    -1.76893   1.14236   0.70172
C    -2.14966  -0.02617   0.15033
O    -2.97021  -0.79218   0.68297
C    -1.60645  -0.37702  -1.18225
N    -0.87678   0.43280  -1.95459
N    -0.12739   1.38409  -1.51503
C     1.32606  -0.48125  -0.55938
F     1.95398  -0.55216  -1.75638
C     1.83986   0.54983   0.34351
O     2.81793   1.22897   0.08747
O     1.13824   0.63693   1.47676
C     1.50802   1.67833   2.38784
C     0.38233  -1.41705  -0.34054
F    -0.13044  -1.69320   0.85138
F     0.25140  -2.44580  -1.17836
H    -3.29672   1.56000   2.10176
H    -1.83477   0.81071   2.79054
H    -1.79770   2.51870   2.26045
H    -0.98495   1.61954   0.26390
H    -2.05153  -1.23147  -1.65454
H    -0.79893   0.14181  -2.94598
H     0.43083   1.74596  -2.27405
H     2.55093   1.55901   2.71432
H     0.83061   1.58400   3.24329
H     1.38287   2.66271   1.91297
26

C    -2.19647   1.52218   2.03159
N    -1.76996   1.14223   0.70171
C    -2.14787  -0.02758   0.15299
O    -2.97066  -0.79199   0.68228
C    -1.58342  -0.39104  -1.17079
N    -0.87994   0.43398  -1.95726
N    -0.11975   1.37362  -1.50881
C     1.31760  -0.46915  -0.56566
F     1.95474  -0.55511  -1.75542
C     1.84008   0.54978   0.34269
O     2.81983   1.22815   0.08860
O     1.13823   0.63678   1.47673
C     1.50803   1.67822   2.38760
C     0.35492  -1.40359  -0.35159
F    -0.12967  -1.69103   0.84955
F     0.25336  -2.44355  -1.17900
H    -3.29699   1.56022   2.10176
H    -1.83497   0.81087   2.79045
H    -1.79793   2.51888   2.26032
H    -0.98473   1.61914   0.26443
H    -2.04777  -1.23403  -1.65091
H    -0.79819   0.14121  -2.94610
H     0.43386   1.74435  -2.27131
H     2.55091   1.55898   2.71435
H     0.83059   1.58404   3.24322
H     1.38297   2.66272   1.91294
26

C    -2.19748   1.52281   2.03160
N    -1.77100   1.14210   0.70169
C    -2.14608  -0.02900   0.15565
O    -2.97111  -0.79180   0.68159
C    -1.56040  -0.40507  -1.15934
N    -0.88309   0.43516  -1.95993
N    -0.11211   1.36315  -1.50259
C     1.30915  -0.45706  -0.57195
F     1.95551  -0.55807  -1.75447
C     1.84030   0.54973   0.34188
O     2.82174   1.22733   0.08973
O     1.13822   0.63663   1.47669
C     1.50804   1.67810   2.38737
C     0.32750  -1.39013  -0.36263
F    -0.12890  -1.68887   0.84772
F     0.25532  -2.44131  -1.17964
H    -3.29725   1.56043   2.10177
H    -1.83517   0.81103   2.79037
H    -1.79816   2.51906   2.26019
H    -0.98450   1.61874   0.26495
H    -2.04402  -1.23659  -1.64728
H    -0.79744   0.14060  -2.94623
H     0.43688   1.74274  -2.26856
H     2.55088   1.55895   2.71438
H     0.83058   1.58408   3.24316
H     1.38307   2.66273   1.91291
26

C    -2.19848   1.52344   2.03160
N    -1.77204   1.14197   0.70167
C    -2.14429  -0.03042   0.15831
O    -2.97156  -0.79161   0.68090
C    -1.53738  -0.41909  -1.14788
N    -0.88625   0.43634  -1.96260
N    -0.10447   1.35268  -1.49638
C     1.30070  -0.44496  -0.57823
F     1.95627  -0.56102  -1.75351
C     1.84052   0.54967   0.34106
O     2.82364   1.22650   0.09086
O     1.13821   0.63648   1.47665
C     1.50805   1.67799   2.38713
C     0.30008  -1.37668  -0.37367
F    -0.12813  -1.68670   0.84588
F     0.25728  -2.43906  -1.18028
H    -3.29751   1.56065   2.10177
H    -1.83536   0.81119   2.79028
H    -1.79839   2.51923   2.26006
H    -0.98428   1.61834   0.26547
H    -2.04027  -1.23914  -1.64364
H    -0.79670   0.13999  -2.94636
H     0.43991   1.74114  -2.26582
H     2.55086   1.55893   2.71441
H     0.83056   1.58413   3.24309
H     1.38316   2.66274   1.91288
26

C    -2.19948   1.52407   2.03161
N    -1.77308   1.14185   0.70166
C    -2.14250  -0.03183   0.16097
O    -2.97201  -0.79142   0.68022
C    -1.51436  -0.43312  -1.13642
N    -0.88941   0.43752  -1.96527
N    -0.09684   1.34221  -1.49016
C     1.29224  -0.43287  -0.58451
F     1.95703  -0.56398  -1.75255
C     1.84074   0.54962   0.34024
O     2.82554   1.22568   0.09199
O     1.13820   0.63632   1.47662
C     1.50806   1.67788   2.38690
C     0.27266  -1.36322  -0.38472
F    -0.12736  -1.68453   0.84405
F     0.25924  -2.43682  -1.18092
H    -3.29778   1.56087   2.10178
H    -1.83556   0.81136   2.79020
H    -1.79862   2.51941   2.25994
H    -0.98406   1.61794   0.26600
H    -2.03651  -1.24170  -1.64001
H    -0.79595   0.13938  -2.94649
H     0.44294   1.73953  -2.26307
H     2.55084   1.55890   2.71444
H     0.83054   1.58417   3.24303
H     1.38326   2.66275   1.91285
26

C    -2.20049   1.52470   2.03161
N    -1.77411   1.14172   0.70164
C    -2.14070  -0.03325   0.16364
O    -2.97246  -0.79123   0.67953
C    -1.49134  -0.44715  -1.12497
N    -0.89257   0.43870  -1.96795
N    -0.08920   1.33174  -1.48395
C     1.28379  -0.42078  -0.59080
F     1.95779  -0.56693  -1.75159
C     1.84096   0.54957   0.33942
O     2.82745   1.22486   0.09312
O     1.13819   0.63617   1.47658
C     1.50806   1.67776   2.38666
C     0.24524  -1.34976  -0.39576
F    -0.12659  -1.68236   0.84222
F     0.26120  -2.43457  -1.18156
H    -3.29804   1.56108   2.10178
H    -1.83576   0.81152   2.79012
H    -1.79886   2.51959   2.25981
H    -0.98384   1.61754   0.26652
H    -2.03276  -1.24426  -1.63638
H    -0.79521   0.13877  -2.94662
H     0.44597   1.73792  -2.26033
H     2.55081   1.55887   2.71447
H     0.83052   1.58421   3.24297
H     1.38336   2.66276   1.91282
26

C    -2.20149   1.52534   2.03162
N    -1.77515   1.14159   0.70163
C    -2.13891  -0.03467   0.16630
O    -2.97291  -0.79104   0.67884
C    -1.46832  -0.46117  -1.11351
N    -0.89573   0.43988  -1.97062
N    -0.08156   1.32127  -1.47773
C     1.27534  -0.40868  -0.59708
F     1.95855  -0.56989  -1.75064
C     1.84118   0.54952   0.33860
O     2.82935   1.22403   0.09425
O     1.13818   0.63602   1.47655
C     1.50807   1.67765   2.38643
C     0.21782  -1.33630  -0.40680
F    -0.12582  -1.68019   0.84039
F     0.26316  -2.43233  -1.18220
H    -3.29831   1.56130   2.10179
H    -1.83596   0.81168   2.79003
H    -1.79909   2.51977   2.25968
H    -0.98362   1.61714   0.26705
H    -2.02901  -1.24681  -1.63274
H    -0.79447   0.13817  -2.94674
H     0.44900   1.73631  -2.25758
H     2.55079   1.55884   2.71450
H     0.83051   1.58426   3.24290
H     1.38346   2.66277   1.91279
26

C    -2.20249   1.52597   2.03162
N    -1.77619   1.14146   0.70161
C    -2.13712  -0.03608   0.16896
O    -2.97336  -0.79085   0.67815
C    -1.44530  -0.47520  -1.10205
N    -0.89888   0.44106  -1.97329
N    -0.07392   1.31080  -1.47151
C     1.26688  -0.39659  -0.60337
F     1.95931  -0.57285  -1.74968
C     1.84140   0.54947   0.33778
O     2.83125   1.22321   0.09538
O     1.13817   0.63587   1.47651
C     1.50808   1.67754   2.38619
C     0.19041  -1.32284  -0.41785
F    -0.12504  -1.67803   0.83856
F     0.26512  -2.43008  -1.18284
H    -3.29857   1.56152   2.10180
H    -1.83616   0.81184   2.78995
H    -1.79932   2.51995   2.25955
H    -0.98340   1.61674   0.26757
H    -2.02526  -1.24937  -1.62911
H    -0.79372   0.13756  -2.94687
H     0.45203   1.73470  -2.25484
H     2.55077   1.55881   2.71453
H     0.83049   1.58430   3.24284
H     1.38355   2.66278   1.91276
26

C    -2.20350   1.52660   2.03162
N    -1.77723   1.14133   0.70160
C    -2.13533  -0.03750   0.17162
O    -2.97382  -0.79066   0.67746
C    -1.42228  -0.48922  -1.09060
N    -0.90204   0.44224  -1.97596
N    -0.06628   1.30033  -1.46530
C     1.25843  -0.38450  -0.60965
F     1.96007  -0.57580  -1.74872
C     1.84162   0.54942   0.33697
O     2.83316   1.22239   0.09651
O     1.13816   0.63571   1.47648
C     1.50809   1.67743   2.38596
C     0.16299  -1.30939  -0.42889
F    -0.12427  -1.67586   0.83672
F     0.26708  -2.42784  -1.18348
H    -3.29883   1.56173   2.10180
H    -1.83636   0.81201   2.78987
H    -1.79955   2.52012   2.25943
H    -0.98318   1.61634   0.26809
H    -2.02150  -1.25193  -1.62548
H    -0.79298   0.13695  -2.94700
H     0.45505   1.73310  -2.25209
H     2.55074   1.55879   2.71456
H     0.83047   1.58434   3.24277
H     1.38365   2.66279   1.91273
26

C    -2.20450   1.52723   2.03163
N    -1.77826   1.14120   0.70158
C    -2.13354  -0.03892   0.17428
O    -2.97427  -0.79047   0.67677
C    -1.39926  -0.50325  -1.07914
N    -0.90520   0.44342  -1.97863
N    -0.05864   1.28986  -1.45908
C     1.24997  -0.37240  -0.61593
F     1.96083  -0.57876  -1.74776
C     1.84184   0.54937   0.33615
O     2.83506   1.22156   0.09764
O     1.13815   0.63556   1.47644
C     1.50810   1.67731   2.38572
C     0.13557  -1.29593  -0.43993
F    -0.12350  -1.67369   0.83489
F     0.26904  -2.42559  -1.18413
H    -3.29910   1.56195   2.10181
H    -1.83655   0.81217   2.78978
H    -1.79978   2.52030   2.25930
H    -0.98296   1.61595   0.26862
H    -2.01775  -1.25449  -1.62184
H    -0.79224   0.13634  -2.94713
H     0.45808   1.73149  -2.24935
H     2.55072   1.55876   2.71458
H     0.83045   1.58439   3.24271
H     1.38375   2.66280   1.91270
26

C    -2.20550   1.52786   2.03163
N    -1.77930   1.14107   0.70157
C    -2.13175  -0.04033   0.17695
O    -2.97472  -0.79028   0.67609
C    -1.37624  -0.51728  -1.06768
N    -0.90836   0.44460  -1.98130
N    -0.05100   1.27939  -1.45287
C     1.24152  -0.36031  -0.62222
F     1.96159  -0.58171  -1.74681
C     1.84206   0.54931   0.33533
O     2.83697   1.22074   0.09877
O     1.13814   0.63541   1.47641
C     1.50811   1.67720   2.38549
C     0.10815  -1.28247  -0.45098
F    -0.12273  -1.67152   0.83306
F     0.27100  -2.42335  -1.18477
H    -3.29936   1.56217   2.10181
H    -1.83675   0.81233   2.78970
H    -1.80001   2.52048   2.25917
H    -0.98274   1.61555   0.26914
H    -2.01400  -1.25704  -1.61821
H    -0.79149   0.13574  -2.94726
H     0.46111   1.72988  -2.24660
H     2.55070   1.55873   2.71461
H     0.83043   1.58443   3.24265
H     1.38385   2.66281   1.91267
26

C    -2.20651   1.52849   2.03164
N    -1.78034   1.14095   0.70155
C    -2.12996  -0.04175   0.17961
O    -2.97517  -0.79009   0.67540
C    -1.35322  -0.53130  -1.05623
N    -0.91152   0.44578  -1.98397
N    -0.04336   1.26892  -1.44665
C     1.23307  -0.34822  -0.62850
F     1.96235  -0.58467  -1.74585
C     1.84228   0.54926   0.33451
O     2.83887   1.21992   0.09990
O     1.13813   0.63526   1.47637
C     1.50811   1.67709   2.38525
C     0.08073  -1.26901  -0.46202
F    -0.12196  -1.66935   0.83123
F     0.27296  -2.42110  -1.18541
H    -3.29963   1.56238   2.10182
H    -1.83695   0.81249   2.78962
H    -1.80024   2.52066   2.25904
H    -0.98251   1.61515   0.26967
H    -2.01024  -1.25960  -1.61458
H    -0.79075   0.13513  -2.94739
H     0.46414   1.72827  -2.24386
H     2.55067   1.55870   2.71464
H     0.83042   1.58447   3.24258
H     1.38394   2.66282   1.91264
26

C    -2.20751   1.52912   2.03164
N    -1.78138   1.14082   0.70153
C    -2.12817  -0.04317   0.18227
O    -2.97562  -0.78990   0.67471
C    -1.33020  -0.54533  -1.04477
N    -0.91467   0.44696  -1.98664
N    -0.03572   1.25845  -1.44044
C     1.22461  -0.33612  -0.63479
F     1.96311  -0.58762  -1.74489
C     1.84249   0.54921   0.33369
O     2.84077   1.21910   0.10103
O     1.13812   0.63511   1.47634
C     1.50812   1.67698   2.38502
C     0.05331  -1.25556  -0.47306
F    -0.12119  -1.66719   0.82940
F     0.27492  -2.41885  -1.18605
H    -3.29989   1.56260   2.10182
H    -1.83715   0.81266   2.78953
H    -1.80047   2.52083   2.25892
H    -0.98229   1.61475   0.27019
H    -2.00649  -1.26216  -1.61094
H    -0.79001   0.13452  -2.94751
H     0.46717   1.72666  -2.24111
H     2.55065   1.55867   2.71467
H     0.83040   1.58452   3.24252
H     1.38404   2.66283   1.91261
26

C    -2.20851   1.52975   2.03165
N    -1.78241   1.14069   0.70152
C    -2.12638  -0.04458   0.18493
O    -2.97607  -0.78971   0.67402
C    -1.30718  -0.55935  -1.03331
N    -0.91783   0.44813  -1.98931
N    -0.02808   1.24798  -1.43422
C     1.21616  -0.32403  -0.64107
F     1.96388  -0.59058  -1.74394
C     1.84271   0.54916   0.33287
O     2.84268   1.21827   0.10216
O     1.13811   0.63495   1.47630
C     1.50813   1.67686   2.38478
C     0.02589  -1.24210  -0.48411
F    -0.12042  -1.66502   0.82756
F     0.27688  -2.41661  -1.18669
H    -3.30015   1.56282   2.10183
H    -1.83735   0.81282   2.78945
H    -1.80070   2.52101   2.25879
H    -0.98207   1.61435   0.27071
H    -2.00274  -1.26472  -1.60731
H    -0.78926   0.13391  -2.94764
H     0.47020   1.72505  -2.23837
H     2.55063   1.55865   2.71470
H     0.83038   1.58456   3.24246
H     1.38414   2.66283   1.91258
26

C    -2.20952   1.53038   2.03165
N    -1.78345   1.14056   0.70150
C    -2.12459  -0.04600   0.18760
O    -2.97652  -0.78952   0.67333
C    -1.28416  -0.57338  -1.02186
N    -0.92099   0.44931  -1.99198
N    -0.02044   1.23751  -1.42800
C     1.20771  -0.31194  -0.64735
F     1.96464  -0.59354  -1.74298
C     1.84293   0.54911   0.33206
O     2.84458   1.21745   0.10329
O     1.13810   0.63480   1.47627
C     1.50814   1.67675   2.38454
C    -0.00152  -1.22864  -0.49515
F    -0.11965  -1.66285   0.82573
F     0.27884  -2.41436  -1.18733
H    -3.30042   1.56303   2.10183
H    -1.83754   0.81298   2.78936
H    -1.80094   2.52119   2.25866
H    -0.98185   1.61395   0.27124
H    -1.99899  -1.26727  -1.60368
H    -0.78852   0.13330  -2.94777
H     0.47323   1.72345  -2.23563
H     2.55061   1.55862   2.71473
H     0.83036   1.58460   3.24239
H     1.38424   2.66284   1.91255
