18

C -3.101451586 1.381835376 0.010152006
C -1.284465045 -0.136204108 1.662345301
C -1.878455874 -2.795453204 2.149079413
C 1.560636424 -2.114617952 -1.847694572
C 1.461777178 -0.438174141 0.502707948
C 2.574213386 2.165848881 -0.040613351
H -2.534849182 3.360246120 -0.140737958
H -3.232737058 0.593273904 -1.892634432
H -4.995069072 1.351038263 0.827872140
H -0.952761040 0.851855240 3.451557743
H 1.080363002 -4.076002983 -1.421116092
H -2.990069635 -3.480770415 0.505601365
H 0.278953906 -1.444974886 -3.320438265
H 3.466347307 -2.102607571 -2.638374086
H 2.599715127 -1.331568472 1.974206577
H 1.611449742 3.095128487 -1.611452747
H 2.462877261 3.400252605 1.608129210
H 4.562829238 1.972271913 -0.558225041

