19

C 4.998994903 1.424391309 0.463739981
C 2.983470787 -0.343720792 -0.514562049
O 0.961366475 -0.355856273 1.230006596
C -1.011727790 -1.962068639 0.494805227
C -3.311494097 -1.650069054 2.147487432
C -3.000286383 -1.090774126 -1.287196965
C -2.991682233 1.729832448 -1.744029431
H 5.656467528 0.810604408 2.318468038
H 4.254485744 3.338864247 0.639201468
H 6.610449463 1.464215718 -0.822214187
H 3.732460524 -2.268815390 -0.730291086
H 2.313670269 0.268465208 -2.380856552
H -0.340021861 -3.896808210 0.251390644
H -3.198628919 -0.026266607 3.392355062
H -4.075706655 -3.369675589 2.960636527
H -4.893187455 -1.370208212 0.519269489
H -2.007250573 1.959071477 -3.548915999
H -4.897739144 2.453106319 -2.041222444
H -2.009551712 2.896806341 -0.345613655

