16

C 3.440218687 -0.189573772 0.265300314
C 1.290143067 -0.263349058 2.180677297
C -2.684673585 -2.358086808 -3.358517664
C -2.512616346 -0.381266570 -1.906725232
C -2.323009390 1.601414238 -0.465804621
C -0.647055567 1.841480377 1.828153273
H 4.458644952 1.604493944 0.369268755
H 2.742856646 -0.404431607 -1.662833890
H 4.797656697 -1.702364050 0.615396304
H 2.073893371 -0.112492505 4.086746397
H -1.495930085 -2.562748153 -5.015041002
H -4.027553485 -3.852589998 -2.959062215
H 0.333378944 -2.094155298 2.089476809
H -3.507620022 3.217224391 -0.921026359
H 0.324932436 3.667278503 1.734000012
H -1.869315079 1.947201219 3.495234738

