16

C 3.458451408 -0.377681003 -0.169502840
C 0.868338678 -0.428751665 1.021342471
C -1.295819162 -2.104243204 -1.461384701
C -3.775500246 -0.531993110 -1.331009906
C -3.277346916 1.578153920 -0.014231981
C -0.613761143 2.012104486 1.200231712
H 4.791231477 0.580291013 1.085415600
H 3.438202217 0.651111391 -1.957085658
H 4.179745659 -2.277926931 -0.514824135
H 0.870338500 -1.505226517 2.781643615
H -0.177418392 -1.422629744 -3.028428392
H -1.350174847 -4.150518228 -1.314526071
H -1.774887676 -1.366273292 0.504818810
H -4.611747255 3.123918048 0.163678213
H 0.351323500 3.512604023 0.154567692
H -0.820562093 2.646009411 3.151648551

