13

C 3.952479504 0.164303542 2.092958440
N 1.691156538 -0.121725404 1.298337562
C -0.268750122 1.727950791 1.508892548
C -2.216568525 0.474987405 0.381899949
N -4.684428768 1.322479947 0.178508897
H -5.589432101 0.861663315 -1.430618126
H -4.856851726 3.169846500 0.610355139
C -1.517384807 -2.083182320 -0.515151152
H -2.742868400 -3.429184010 -1.443101468
C 0.897522910 -2.436227266 0.046640746
H 2.196349476 -3.979162796 -0.237372391
H 4.415960914 1.928065776 3.015916345
H 5.324312635 -1.329306035 1.823707768

