11

C -2.856298568 0.339283375 -0.375412633
C 1.142816655 -1.924526017 -1.695589439
O 3.347290007 -0.799854701 -1.520925662
C 3.325359244 0.919071891 0.547991607
N 1.299238565 1.006735266 1.743126293
C -0.352049023 -0.817412166 0.455955274
H -2.537608295 1.869899704 -1.718230361
H -3.850804906 1.098423417 1.258374692
H -4.022109373 -1.092480511 -1.284183778
H 5.065484255 1.948007489 0.841495497
H -0.728935415 -2.385920111 1.762423742

