14

O 3.727253119 -1.844319710 -1.801968698
C 1.824932764 -0.352551312 1.110487031
C 0.719261340 2.122656658 0.745481706
C -1.914171489 1.813969177 -0.202304252
C -2.289913577 -0.894387967 -1.016105473
C -0.733448875 -1.484109678 1.347634696
N -1.423981465 1.160296036 2.460885679
H 4.412489865 -0.390553950 -2.653527592
H 3.880633912 -1.356175616 0.400948256
H 1.589215810 3.946539641 1.041542679
H -3.019193206 3.470663725 -0.671196308
H -1.543655118 -1.527936584 -2.826521530
H -4.254641571 -1.466575079 -0.776766746
H -1.021535242 -3.180290468 2.461637960

