10

C -2.666503150 -0.473353604 -0.005635711
C 0.093220681 -0.999724212 0.429059803
C 1.866814102 1.038025596 -0.336747816
N 4.309839413 1.154811295 1.017427468
N 4.451453901 0.254639518 -1.058630414
O 0.877055399 -2.937414288 1.336146258
H -3.788495363 -2.076414379 0.619969102
H -3.011782324 -0.118419555 -2.010488884
H -3.236682012 1.223807255 1.023340875
H 1.180307461 2.786964970 -1.143011996

