17

C 3.469763875 -1.007420121 1.168884539
C -1.717243905 -1.063184012 -3.309375884
C -2.813872138 -1.963018245 -0.832640372
C -2.810318546 0.850282553 -0.688270323
C -0.304814714 1.857482238 0.131909800
C 1.265650743 0.552427323 2.169989346
C -0.328056852 1.109803895 -2.616784891
H 4.546849374 -1.832006916 2.722131906
H 2.823937141 -2.541283812 -0.049269998
H 4.751545150 0.161545732 0.052011027
H -1.619035216 -2.844529902 0.589052426
H -4.598254441 -2.949477978 -1.041464180
H -4.438661381 2.039799122 -1.000889209
H -0.291301868 3.904456404 0.302886021
H 0.045879489 -0.626656332 3.350821678
H 1.996546541 2.022449168 3.420520182
H 0.109427199 2.526009818 -4.036111469

