14

C 3.397241572 1.884300513 -1.596507526
N 1.259880993 0.848962920 -1.541582410
C 0.532059401 -0.402779344 0.787605761
N 1.113135766 -3.077302417 0.549461190
C -2.280930046 0.015609100 1.378082228
O -3.136438089 -0.700807277 3.383792807
N -3.657568316 1.117848365 -0.457496383
H 4.681839389 1.902828805 0.026592037
H 1.576314555 0.329707603 2.422600527
H 4.030613424 2.800699519 -3.325105473
H 0.407437557 -3.990686572 2.078193746
H 0.234429691 -3.783761108 -1.000072035
H -2.817824841 1.607297144 -2.089110183
H -5.520949050 1.360218043 -0.195049159

