14

C 2.647340345 1.784581480 -1.296163470
N 1.283081255 -0.164318036 -2.202649370
C 0.398655471 -1.072065630 0.057127517
N 0.695903607 -3.538042212 0.681815529
C -2.077231308 -0.029019258 1.115219170
O -2.979475528 -0.949093365 3.011050886
N -3.171465561 1.818744326 -0.254981351
H 4.330655710 1.430736329 -0.162641471
H 1.516189442 1.163621481 1.291133945
H 2.761311712 3.542559603 -2.385912704
H -0.335302629 -4.225666306 2.124463557
H 2.243653686 -4.459632825 0.101551406
H -2.562091984 2.164187585 -2.017635072
H -4.849395471 2.479103640 0.331018979

