16

C -1.901875684 1.615750853 -2.278631213
C -0.057207849 -0.197124041 -1.104703430
C -0.018697234 0.610416649 3.807543198
C -0.534147624 -2.962743080 -1.541149587
C 2.293481626 0.615210903 -0.424679380
C 3.881855204 1.342093075 1.120833433
H -1.520004213 3.560084715 -1.720180766
H -3.833383143 1.130031732 -1.745223662
H -1.790292667 1.514437004 -4.344322625
H 0.924625135 -1.086674309 3.265661322
H -0.081994631 2.304114283 2.716247564
H -0.967360384 0.624541710 5.633302301
H -2.475165376 -3.448003887 -1.043109092
H -0.275651175 -3.427890417 -3.542594468
H 0.752058142 -4.139595177 -0.446300701
H 5.668535905 1.991750303 1.796287464

