14

C 2.003257506 -2.150271075 0.559391209
C -0.461451750 -1.193129517 1.684738631
N -0.027015770 1.078817829 3.169379417
C 0.440258131 3.253171933 2.741794828
O 0.894795260 5.401881564 2.559665632
C -2.547367823 -0.717501552 -0.197410070
C -2.439833658 -1.157128722 -2.655189473
H -4.040719245 -0.754530697 -3.864333682
H -0.774027512 -1.930307388 -3.560397842
H -4.260863097 0.063606084 0.621141129
H -1.148564956 -2.602176930 3.031974558
H 2.758534683 -0.807356290 -0.812565774
H 1.716167573 -3.963013574 -0.379381077
H 3.399095923 -2.409873089 2.050446349

