23

C    -2.80130   1.01602   0.09635
C    -2.15325  -0.09028  -0.69015
O    -2.52444  -0.39264  -1.80889
C    -0.87872  -0.75758  -0.10061
C    -0.80786  -2.23778  -0.52717
N    -1.00155  -0.71670   1.39339
N     0.00677  -0.15902   1.91959
C     1.18331   0.34524   0.85379
C     2.38067  -0.53098   1.28579
O     3.14386  -0.05846   2.16765
O     2.44097  -1.69702   0.80336
C     0.55573   0.12515  -0.49030
C     0.21755   1.38613  -1.34064
O     0.07158   1.19161  -2.57586
O     0.03030   2.47992  -0.74062
H    -3.37820   0.62494   0.94903
H    -3.47186   1.59324  -0.56184
H    -2.02119   1.68453   0.49931
H    -0.76110  -2.24338  -1.61915
H     0.12332  -2.65730  -0.11684
H    -1.65266  -2.92235  -0.23254
H     1.35858   1.43100   1.12712
H     1.10953  -0.61391  -1.12975
23

C    -2.80161   1.01728   0.09657
C    -2.15672  -0.09218  -0.68791
O    -2.52456  -0.39217  -1.80935
C    -0.89970  -0.76944  -0.09324
C    -0.80923  -2.24135  -0.52651
N    -0.99562  -0.71365   1.38585
N    -0.01022  -0.16687   1.93335
C     1.20045   0.35311   0.84040
C     2.38203  -0.53036   1.28496
O     3.14402  -0.05936   2.16901
O     2.44030  -1.69757   0.80462
C     0.57703   0.13615  -0.49458
C     0.21981   1.38775  -1.34102
O     0.07035   1.19148  -2.57577
O     0.02839   2.48120  -0.74122
H    -3.37894   0.62617   0.94906
H    -3.47128   1.59389  -0.56218
H    -2.02097   1.68466   0.49915
H    -0.76058  -2.24200  -1.61882
H     0.12365  -2.65631  -0.11651
H    -1.65122  -2.92652  -0.23470
H     1.35898   1.43142   1.12773
H     1.10807  -0.61467  -1.12931
23

C    -2.80193   1.01853   0.09679
C    -2.16018  -0.09409  -0.68567
O    -2.52468  -0.39171  -1.80981
C    -0.92069  -0.78129  -0.08586
C    -0.81060  -2.24492  -0.52585
N    -0.98969  -0.71059   1.37830
N    -0.02720  -0.17473   1.94712
C     1.21759   0.36099   0.82702
C     2.38338  -0.52974   1.28412
O     3.14419  -0.06027   2.17037
O     2.43962  -1.69812   0.80589
C     0.59833   0.14715  -0.49887
C     0.22208   1.38936  -1.34140
O     0.06912   1.19136  -2.57567
O     0.02647   2.48248  -0.74181
H    -3.37968   0.62740   0.94908
H    -3.47070   1.59454  -0.56252
H    -2.02074   1.68478   0.49899
H    -0.76005  -2.24063  -1.61849
H     0.12397  -2.65532  -0.11618
H    -1.64978  -2.93069  -0.23687
H     1.35938   1.43185   1.12834
H     1.10661  -0.61544  -1.12886
23

C    -2.80224   1.01979   0.09701
C    -2.16365  -0.09600  -0.68343
O    -2.52480  -0.39125  -1.81027
C    -0.94167  -0.79315  -0.07849
C    -0.81197  -2.24848  -0.52519
N    -0.98376  -0.70753   1.37076
N    -0.04419  -0.18259   1.96089
C     1.23474   0.36886   0.81363
C     2.38474  -0.52912   1.28329
O     3.14435  -0.06118   2.17174
O     2.43895  -1.69867   0.80716
C     0.61963   0.15816  -0.50315
C     0.22435   1.39098  -1.34178
O     0.06789   1.19123  -2.57557
O     0.02455   2.48375  -0.74240
H    -3.38042   0.62864   0.94910
H    -3.47012   1.59519  -0.56286
H    -2.02051   1.68491   0.49883
H    -0.75952  -2.23926  -1.61815
H     0.12429  -2.65433  -0.11585
H    -1.64835  -2.93486  -0.23903
H     1.35978   1.43227   1.12895
H     1.10515  -0.61621  -1.12841
23

C    -2.80256   1.02105   0.09723
C    -2.16712  -0.09791  -0.68119
O    -2.52492  -0.39078  -1.81073
C    -0.96265  -0.80501  -0.07111
C    -0.81334  -2.25205  -0.52452
N    -0.97783  -0.70448   1.36322
N    -0.06117  -0.19045   1.97466
C     1.25188   0.37673   0.80024
C     2.38609  -0.52850   1.28245
O     3.14452  -0.06208   2.17310
O     2.43827  -1.69922   0.80843
C     0.64093   0.16916  -0.50744
C     0.22662   1.39260  -1.34216
O     0.06666   1.19111  -2.57548
O     0.02263   2.48503  -0.74299
H    -3.38116   0.62987   0.94912
H    -3.46954   1.59584  -0.56320
H    -2.02028   1.68504   0.49867
H    -0.75900  -2.23789  -1.61782
H     0.12461  -2.65334  -0.11552
H    -1.64691  -2.93902  -0.24119
H     1.36018   1.43270   1.12956
H     1.10369  -0.61698  -1.12796
23

C    -2.80287   1.02230   0.09745
C    -2.17058  -0.09981  -0.67895
O    -2.52505  -0.39032  -1.81119
C    -0.98363  -0.81687  -0.06373
C    -0.81471  -2.25562  -0.52386
N    -0.97189  -0.70142   1.35567
N    -0.07816  -0.19830   1.98843
C     1.26902   0.38460   0.78686
C     2.38745  -0.52788   1.28161
O     3.14468  -0.06299   2.17446
O     2.43759  -1.69976   0.80970
C     0.66223   0.18016  -0.51172
C     0.22889   1.39422  -1.34254
O     0.06542   1.19098  -2.57538
O     0.02071   2.48631  -0.74359
H    -3.38190   0.63110   0.94914
H    -3.46897   1.59649  -0.56354
H    -2.02005   1.68516   0.49851
H    -0.75847  -2.23651  -1.61749
H     0.12493  -2.65235  -0.11519
H    -1.64547  -2.94319  -0.24336
H     1.36058   1.43312   1.13017
H     1.10223  -0.61775  -1.12751
23

C    -2.80319   1.02356   0.09767
C    -2.17405  -0.10172  -0.67671
O    -2.52517  -0.38985  -1.81165
C    -1.00462  -0.82872  -0.05636
C    -0.81609  -2.25918  -0.52320
N    -0.96596  -0.69836   1.34813
N    -0.09515  -0.20616   2.00219
C     1.28617   0.39248   0.77347
C     2.38880  -0.52726   1.28078
O     3.14484  -0.06390   2.17582
O     2.43692  -1.70031   0.81097
C     0.68353   0.19116  -0.51601
C     0.23116   1.39584  -1.34292
O     0.06419   1.19086  -2.57528
O     0.01879   2.48758  -0.74418
H    -3.38264   0.63234   0.94917
H    -3.46839   1.59715  -0.56387
H    -2.01982   1.68529   0.49836
H    -0.75794  -2.23514  -1.61715
H     0.12525  -2.65136  -0.11486
H    -1.64403  -2.94736  -0.24552
H     1.36098   1.43355   1.13079
H     1.10077  -0.61851  -1.12706
23

C    -2.80350   1.02482   0.09789
C    -2.17752  -0.10363  -0.67447
O    -2.52529  -0.38939  -1.81211
C    -1.02560  -0.84058  -0.04898
C    -0.81746  -2.26275  -0.52254
N    -0.96003  -0.69530   1.34059
N    -0.11213  -0.21402   2.01596
C     1.30331   0.40035   0.76008
C     2.39016  -0.52664   1.27994
O     3.14501  -0.06480   2.17718
O     2.43624  -1.70086   0.81224
C     0.70483   0.20217  -0.52029
C     0.23343   1.39745  -1.34330
O     0.06296   1.19073  -2.57518
O     0.01688   2.48886  -0.74477
H    -3.38338   0.63357   0.94919
H    -3.46781   1.59780  -0.56421
H    -2.01959   1.68542   0.49820
H    -0.75742  -2.23377  -1.61682
H     0.12557  -2.65037  -0.11453
H    -1.64260  -2.95153  -0.24769
H     1.36138   1.43397   1.13140
H     1.09931  -0.61928  -1.12661
23

C    -2.80382   1.02607   0.09811
C    -2.18098  -0.10554  -0.67223
O    -2.52541  -0.38892  -1.81257
C    -1.04658  -0.85244  -0.04161
C    -0.81883  -2.26631  -0.52187
N    -0.95410  -0.69225   1.33305
N    -0.12912  -0.22188   2.02973
C     1.32045   0.40822   0.74670
C     2.39151  -0.52602   1.27910
O     3.14517  -0.06571   2.17855
O     2.43557  -1.70141   0.81351
C     0.72613   0.21317  -0.52458
C     0.23569   1.39907  -1.34368
O     0.06173   1.19061  -2.57509
O     0.01496   2.49013  -0.74537
H    -3.38412   0.63480   0.94921
H    -3.46723   1.59845  -0.56455
H    -2.01936   1.68554   0.49804
H    -0.75689  -2.23239  -1.61649
H     0.12589  -2.64938  -0.11420
H    -1.64116  -2.95570  -0.24985
H     1.36178   1.43440   1.13201
H     1.09785  -0.62005  -1.12616
23

C    -2.80413   1.02733   0.09833
C    -2.18445  -0.10745  -0.66999
O    -2.52553  -0.38846  -1.81303
C    -1.06757  -0.86430  -0.03423
C    -0.82020  -2.26988  -0.52121
N    -0.94817  -0.68919   1.32550
N    -0.14611  -0.22973   2.04350
C     1.33760   0.41610   0.73331
C     2.39287  -0.52540   1.27827
O     3.14533  -0.06662   2.17991
O     2.43489  -1.70196   0.81478
C     0.74743   0.22417  -0.52886
C     0.23796   1.40069  -1.34406
O     0.06050   1.19048  -2.57499
O     0.01304   2.49141  -0.74596
H    -3.38486   0.63604   0.94923
H    -3.46666   1.59910  -0.56489
H    -2.01914   1.68567   0.49788
H    -0.75636  -2.23102  -1.61616
H     0.12621  -2.64839  -0.11387
H    -1.63972  -2.95987  -0.25202
H     1.36218   1.43482   1.13262
H     1.09639  -0.62082  -1.12571
23

C    -2.80445   1.02859   0.09855
C    -2.18792  -0.10935  -0.66775
O    -2.52565  -0.38799  -1.81349
C    -1.08855  -0.87615  -0.02686
C    -0.82157  -2.27345  -0.52055
N    -0.94224  -0.68613   1.31796
N    -0.16309  -0.23759   2.05727
C     1.35474   0.42397   0.71992
C     2.39422  -0.52478   1.27743
O     3.14550  -0.06752   2.18127
O     2.43422  -1.70251   0.81605
C     0.76873   0.23518  -0.53315
C     0.24023   1.40231  -1.34444
O     0.05927   1.19036  -2.57489
O     0.01112   2.49269  -0.74655
H    -3.38560   0.63727   0.94926
H    -3.46608   1.59975  -0.56523
H    -2.01891   1.68580   0.49772
H    -0.75584  -2.22965  -1.61582
H     0.12653  -2.64740  -0.11354
H    -1.63829  -2.96404  -0.25418
H     1.36258   1.43525   1.13323
H     1.09493  -0.62159  -1.12526
23

C    -2.80476   1.02984   0.09877
C    -2.19138  -0.11126  -0.66551
O    -2.52577  -0.38753  -1.81395
C    -1.10953  -0.88801  -0.01948
C    -0.82295  -2.27701  -0.51988
N    -0.93631  -0.68308   1.31042
N    -0.18008  -0.24545   2.07104
C     1.37188   0.43184   0.70654
C     2.39558  -0.52416   1.27659
O     3.14566  -0.06843   2.18263
O     2.43354  -1.70306   0.81732
C     0.79003   0.24618  -0.53743
C     0.24250   1.40393  -1.34482
O     0.05804   1.19023  -2.57479
O     0.00920   2.49396  -0.74715
H    -3.38634   0.63850   0.94928
H    -3.46550   1.60040  -0.56557
H    -2.01868   1.68592   0.49756
H    -0.75531  -2.22827  -1.61549
H     0.12685  -2.64641  -0.11321
H    -1.63685  -2.96821  -0.25635
H     1.36298   1.43567   1.13384
H     1.09347  -0.62235  -1.12481
23

C    -2.80508   1.03110   0.09898
C    -2.19485  -0.11317  -0.66327
O    -2.52589  -0.38707  -1.81441
C    -1.13051  -0.89987  -0.01210
C    -0.82432  -2.28058  -0.51922
N    -0.93038  -0.68002   1.30287
N    -0.19707  -0.25331   2.08480
C     1.38903   0.43971   0.69315
C     2.39693  -0.52354   1.27576
O     3.14582  -0.06934   2.18400
O     2.43286  -1.70361   0.81859
C     0.81133   0.25718  -0.54171
C     0.24477   1.40555  -1.34520
O     0.05681   1.19011  -2.57470
O     0.00729   2.49524  -0.74774
H    -3.38708   0.63973   0.94930
H    -3.46492   1.60105  -0.56590
H    -2.01845   1.68605   0.49741
H    -0.75478  -2.22690  -1.61516
H     0.12718  -2.64542  -0.11288
H    -1.63541  -2.97237  -0.25851
H     1.36337   1.43610   1.13445
H     1.09201  -0.62312  -1.12436
23

C    -2.80539   1.03236   0.09920
C    -2.19832  -0.11508  -0.66104
O    -2.52602  -0.38660  -1.81487
C    -1.15150  -0.91173  -0.00473
C    -0.82569  -2.28415  -0.51856
N    -0.92445  -0.67696   1.29533
N    -0.21405  -0.26116   2.09857
C     1.40617   0.44759   0.67976
C     2.39829  -0.52292   1.27492
O     3.14599  -0.07024   2.18536
O     2.43219  -1.70416   0.81985
C     0.83263   0.26819  -0.54600
C     0.24704   1.40716  -1.34558
O     0.05558   1.18998  -2.57460
O     0.00537   2.49652  -0.74833
H    -3.38782   0.64097   0.94932
H    -3.46434   1.60170  -0.56624
H    -2.01822   1.68618   0.49725
H    -0.75426  -2.22553  -1.61482
H     0.12750  -2.64443  -0.11255
H    -1.63397  -2.97654  -0.26068
H     1.36377   1.43652   1.13507
H     1.09055  -0.62389  -1.12391
23

C    -2.80571   1.03361   0.09942
C    -2.20178  -0.11698  -0.65880
O    -2.52614  -0.38614  -1.81533
C    -1.17248  -0.92358   0.00265
C    -0.82706  -2.28771  -0.51790
N    -0.91851  -0.67391   1.28779
N    -0.23104  -0.26902   2.11234
C     1.42331   0.45546   0.66638
C     2.39964  -0.52230   1.27409
O     3.14615  -0.07115   2.18672
O     2.43151  -1.70471   0.82112
C     0.85393   0.27919  -0.55028
C     0.24930   1.40878  -1.34596
O     0.05434   1.18986  -2.57450
O     0.00345   2.49779  -0.74893
H    -3.38856   0.64220   0.94935
H    -3.46377   1.60235  -0.56658
H    -2.01799   1.68630   0.49709
H    -0.75373  -2.22416  -1.61449
H     0.12782  -2.64344  -0.11222
H    -1.63254  -2.98071  -0.26284
H     1.36417   1.43695   1.13568
H     1.08909  -0.62466  -1.12346
23

C    -2.80602   1.03487   0.09964
C    -2.20525  -0.11889  -0.65656
O    -2.52626  -0.38567  -1.81579
C    -1.19346  -0.93544   0.01002
C    -0.82843  -2.29128  -0.51723
N    -0.91258  -0.67085   1.28024
N    -0.24803  -0.27688   2.12611
C     1.44046   0.46333   0.65299
C     2.40100  -0.52168   1.27325
O     3.14631  -0.07206   2.18808
O     2.43084  -1.70526   0.82239
C     0.87524   0.29019  -0.55457
C     0.25157   1.41040  -1.34634
O     0.05311   1.18973  -2.57441
O     0.00153   2.49907  -0.74952
H    -3.38930   0.64343   0.94937
H    -3.46319   1.60300  -0.56692
H    -2.01776   1.68643   0.49693
H    -0.75320  -2.22278  -1.61416
H     0.12814  -2.64245  -0.11189
H    -1.63110  -2.98488  -0.26501
H     1.36457   1.43737   1.13629
H     1.08764  -0.62543  -1.12301
23

C    -2.80634   1.03613   0.09986
C    -2.20872  -0.12080  -0.65432
O    -2.52638  -0.38521  -1.81625
C    -1.21445  -0.94730   0.01740
C    -0.82981  -2.29485  -0.51657
N    -0.90665  -0.66779   1.27270
N    -0.26501  -0.28474   2.13988
C     1.45760   0.47120   0.63960
C     2.40235  -0.52106   1.27241
O     3.14648  -0.07296   2.18944
O     2.43016  -1.70581   0.82366
C     0.89654   0.30119  -0.55885
C     0.25384   1.41202  -1.34672
O     0.05188   1.18961  -2.57431
O    -0.00039   2.50035  -0.75011
H    -3.39004   0.64467   0.94939
H    -3.46261   1.60365  -0.56726
H    -2.01753   1.68656   0.49677
H    -0.75268  -2.22141  -1.61382
H     0.12846  -2.64146  -0.11156
H    -1.62966  -2.98905  -0.26717
H     1.36497   1.43780   1.13690
H     1.08618  -0.62619  -1.12256
23

C    -2.80665   1.03738   0.10008
C    -2.21218  -0.12271  -0.65208
O    -2.52650  -0.38474  -1.81671
C    -1.23543  -0.95916   0.02477
C    -0.83118  -2.29841  -0.51591
N    -0.90072  -0.66473   1.26516
N    -0.28200  -0.29259   2.15365
C     1.47474   0.47908   0.62622
C     2.40371  -0.52044   1.27158
O     3.14664  -0.07387   2.19081
O     2.42949  -1.70635   0.82493
C     0.91784   0.31220  -0.56314
C     0.25611   1.41364  -1.34710
O     0.05065   1.18948  -2.57421
O    -0.00230   2.50162  -0.75071
H    -3.39078   0.64590   0.94941
H    -3.46203   1.60430  -0.56759
H    -2.01731   1.68668   0.49661
H    -0.75215  -2.22004  -1.61349
H     0.12878  -2.64047  -0.11123
H    -1.62823  -2.99322  -0.26934
H     1.36537   1.43822   1.13751
H     1.08472  -0.62696  -1.12212
23

C    -2.80697   1.03864   0.10030
C    -2.21565  -0.12462  -0.64984
O    -2.52662  -0.38428  -1.81717
C    -1.25641  -0.97101   0.03215
C    -0.83255  -2.30198  -0.51524
N    -0.89479  -0.66168   1.25761
N    -0.29899  -0.30045   2.16741
C     1.49189   0.48695   0.61283
C     2.40506  -0.51982   1.27074
O     3.14680  -0.07478   2.19217
O     2.42881  -1.70690   0.82620
C     0.93914   0.32320  -0.56742
C     0.25838   1.41526  -1.34748
O     0.04942   1.18936  -2.57411
O    -0.00422   2.50290  -0.75130
H    -3.39152   0.64713   0.94944
H    -3.46146   1.60495  -0.56793
H    -2.01708   1.68681   0.49646
H    -0.75162  -2.21866  -1.61316
H     0.12910  -2.63948  -0.11090
H    -1.62679  -2.99739  -0.27150
H     1.36577   1.43865   1.13812
H     1.08326  -0.62773  -1.12167
23

C    -2.80728   1.03990   0.10052
C    -2.21912  -0.12652  -0.64760
O    -2.52674  -0.38381  -1.81763
C    -1.27739  -0.98287   0.03953
C    -0.83392  -2.30554  -0.51458
N    -0.88886  -0.65862   1.25007
N    -0.31597  -0.30831   2.18118
C     1.50903   0.49482   0.59945
C     2.40642  -0.51920   1.26990
O     3.14697  -0.07568   2.19353
O     2.42814  -1.70745   0.82747
C     0.96044   0.33420  -0.57171
C     0.26065   1.41687  -1.34786
O     0.04819   1.18923  -2.57402
O    -0.00614   2.50418  -0.75189
H    -3.39226   0.64837   0.94946
H    -3.46088   1.60560  -0.56827
H    -2.01685   1.68694   0.49630
H    -0.75110  -2.21729  -1.61282
H     0.12942  -2.63849  -0.11057
H    -1.62535  -3.00155  -0.27367
H     1.36617   1.43907   1.13873
H     1.08180  -0.62850  -1.12122
23

C    -2.80760   1.04115   0.10074
C    -2.22258  -0.12843  -0.64536
O    -2.52686  -0.38335  -1.81809
C    -1.29838  -0.99473   0.04690
C    -0.83529  -2.30911  -0.51392
N    -0.88293  -0.65556   1.24253
N    -0.33296  -0.31617   2.19495
C     1.52617   0.50270   0.58606
C     2.40777  -0.51858   1.26907
O     3.14713  -0.07659   2.19489
O     2.42746  -1.70800   0.82874
C     0.98174   0.34521  -0.57599
C     0.26292   1.41849  -1.34824
O     0.04696   1.18911  -2.57392
O    -0.00806   2.50545  -0.75249
H    -3.39300   0.64960   0.94948
H    -3.46030   1.60625  -0.56861
H    -2.01662   1.68706   0.49614
H    -0.75057  -2.21592  -1.61249
H     0.12974  -2.63750  -0.11024
H    -1.62391  -3.00572  -0.27583
H     1.36657   1.43950   1.13934
H     1.08034  -0.62927  -1.12077
23

C    -2.80728   1.03990   0.10052
C    -2.21912  -0.12652  -0.64760
O    -2.52674  -0.38381  -1.81763
C    -1.27739  -0.98287   0.03953
C    -0.83392  -2.30554  -0.51458
N    -0.88886  -0.65862   1.25007
N    -0.31597  -0.30831   2.18118
C     1.50903   0.49482   0.59945
C     2.40642  -0.51920   1.26990
O     3.14697  -0.07568   2.19353
O     2.42814  -1.70745   0.82747
C     0.96044   0.33420  -0.57171
C     0.26065   1.41687  -1.34786
O     0.04819   1.18923  -2.57402
O    -0.00614   2.50418  -0.75189
H    -3.39226   0.64837   0.94946
H    -3.46088   1.60560  -0.56827
H    -2.01685   1.68694   0.49630
H    -0.75110  -2.21729  -1.61282
H     0.12942  -2.63849  -0.11057
H    -1.62535  -3.00155  -0.27367
H     1.36617   1.43907   1.13873
H     1.08180  -0.62850  -1.12122
23

C    -2.80697   1.03864   0.10030
C    -2.21565  -0.12462  -0.64984
O    -2.52662  -0.38428  -1.81717
C    -1.25641  -0.97101   0.03215
C    -0.83255  -2.30198  -0.51524
N    -0.89479  -0.66168   1.25761
N    -0.29899  -0.30045   2.16741
C     1.49189   0.48695   0.61283
C     2.40506  -0.51982   1.27074
O     3.14680  -0.07478   2.19217
O     2.42881  -1.70690   0.82620
C     0.93914   0.32320  -0.56742
C     0.25838   1.41526  -1.34748
O     0.04942   1.18936  -2.57411
O    -0.00422   2.50290  -0.75130
H    -3.39152   0.64713   0.94944
H    -3.46146   1.60495  -0.56793
H    -2.01708   1.68681   0.49646
H    -0.75162  -2.21866  -1.61316
H     0.12910  -2.63948  -0.11090
H    -1.62679  -2.99739  -0.27150
H     1.36577   1.43865   1.13812
H     1.08326  -0.62773  -1.12167
23

C    -2.80665   1.03738   0.10008
C    -2.21218  -0.12271  -0.65208
O    -2.52650  -0.38474  -1.81671
C    -1.23543  -0.95916   0.02477
C    -0.83118  -2.29841  -0.51591
N    -0.90072  -0.66473   1.26516
N    -0.28200  -0.29259   2.15365
C     1.47474   0.47908   0.62622
C     2.40371  -0.52044   1.27158
O     3.14664  -0.07387   2.19081
O     2.42949  -1.70635   0.82493
C     0.91784   0.31220  -0.56314
C     0.25611   1.41364  -1.34710
O     0.05065   1.18948  -2.57421
O    -0.00230   2.50162  -0.75071
H    -3.39078   0.64590   0.94941
H    -3.46203   1.60430  -0.56759
H    -2.01731   1.68668   0.49661
H    -0.75215  -2.22004  -1.61349
H     0.12878  -2.64047  -0.11123
H    -1.62823  -2.99322  -0.26934
H     1.36537   1.43822   1.13751
H     1.08472  -0.62696  -1.12212
23

C    -2.80634   1.03613   0.09986
C    -2.20872  -0.12080  -0.65432
O    -2.52638  -0.38521  -1.81625
C    -1.21445  -0.94730   0.01740
C    -0.82981  -2.29485  -0.51657
N    -0.90665  -0.66779   1.27270
N    -0.26501  -0.28474   2.13988
C     1.45760   0.47120   0.63960
C     2.40235  -0.52106   1.27241
O     3.14648  -0.07296   2.18944
O     2.43016  -1.70581   0.82366
C     0.89654   0.30119  -0.55885
C     0.25384   1.41202  -1.34672
O     0.05188   1.18961  -2.57431
O    -0.00039   2.50035  -0.75011
H    -3.39004   0.64467   0.94939
H    -3.46261   1.60365  -0.56726
H    -2.01753   1.68656   0.49677
H    -0.75268  -2.22141  -1.61382
H     0.12846  -2.64146  -0.11156
H    -1.62966  -2.98905  -0.26717
H     1.36497   1.43780   1.13690
H     1.08618  -0.62619  -1.12256
23

C    -2.80602   1.03487   0.09964
C    -2.20525  -0.11889  -0.65656
O    -2.52626  -0.38567  -1.81579
C    -1.19346  -0.93544   0.01002
C    -0.82843  -2.29128  -0.51723
N    -0.91258  -0.67085   1.28024
N    -0.24803  -0.27688   2.12611
C     1.44046   0.46333   0.65299
C     2.40100  -0.52168   1.27325
O     3.14631  -0.07206   2.18808
O     2.43084  -1.70526   0.82239
C     0.87524   0.29019  -0.55457
C     0.25157   1.41040  -1.34634
O     0.05311   1.18973  -2.57441
O     0.00153   2.49907  -0.74952
H    -3.38930   0.64343   0.94937
H    -3.46319   1.60300  -0.56692
H    -2.01776   1.68643   0.49693
H    -0.75320  -2.22278  -1.61416
H     0.12814  -2.64245  -0.11189
H    -1.63110  -2.98488  -0.26501
H     1.36457   1.43737   1.13629
H     1.08764  -0.62543  -1.12301
23

C    -2.80571   1.03361   0.09942
C    -2.20178  -0.11698  -0.65880
O    -2.52614  -0.38614  -1.81533
C    -1.17248  -0.92358   0.00265
C    -0.82706  -2.28771  -0.51790
N    -0.91851  -0.67391   1.28779
N    -0.23104  -0.26902   2.11234
C     1.42331   0.45546   0.66638
C     2.39964  -0.52230   1.27409
O     3.14615  -0.07115   2.18672
O     2.43151  -1.70471   0.82112
C     0.85393   0.27919  -0.55028
C     0.24930   1.40878  -1.34596
O     0.05434   1.18986  -2.57450
O     0.00345   2.49779  -0.74893
H    -3.38856   0.64220   0.94935
H    -3.46377   1.60235  -0.56658
H    -2.01799   1.68630   0.49709
H    -0.75373  -2.22416  -1.61449
H     0.12782  -2.64344  -0.11222
H    -1.63254  -2.98071  -0.26284
H     1.36417   1.43695   1.13568
H     1.08909  -0.62466  -1.12346
23

C    -2.80539   1.03236   0.09920
C    -2.19832  -0.11508  -0.66104
O    -2.52602  -0.38660  -1.81487
C    -1.15150  -0.91173  -0.00473
C    -0.82569  -2.28415  -0.51856
N    -0.92445  -0.67696   1.29533
N    -0.21405  -0.26116   2.09857
C     1.40617   0.44759   0.67976
C     2.39829  -0.52292   1.27492
O     3.14599  -0.07024   2.18536
O     2.43219  -1.70416   0.81985
C     0.83263   0.26819  -0.54600
C     0.24704   1.40716  -1.34558
O     0.05558   1.18998  -2.57460
O     0.00537   2.49652  -0.74833
H    -3.38782   0.64097   0.94932
H    -3.46434   1.60170  -0.56624
H    -2.01822   1.68618   0.49725
H    -0.75426  -2.22553  -1.61482
H     0.12750  -2.64443  -0.11255
H    -1.63397  -2.97654  -0.26068
H     1.36377   1.43652   1.13507
H     1.09055  -0.62389  -1.12391
23

C    -2.80508   1.03110   0.09898
C    -2.19485  -0.11317  -0.66327
O    -2.52589  -0.38707  -1.81441
C    -1.13051  -0.89987  -0.01210
C    -0.82432  -2.28058  -0.51922
N    -0.93038  -0.68002   1.30287
N    -0.19707  -0.25331   2.08480
C     1.38903   0.43971   0.69315
C     2.39693  -0.52354   1.27576
O     3.14582  -0.06934   2.18400
O     2.43286  -1.70361   0.81859
C     0.81133   0.25718  -0.54171
C     0.24477   1.40555  -1.34520
O     0.05681   1.19011  -2.57470
O     0.00729   2.49524  -0.74774
H    -3.38708   0.63973   0.94930
H    -3.46492   1.60105  -0.56590
H    -2.01845   1.68605   0.49741
H    -0.75478  -2.22690  -1.61516
H     0.12718  -2.64542  -0.11288
H    -1.63541  -2.97237  -0.25851
H     1.36337   1.43610   1.13445
H     1.09201  -0.62312  -1.12436
23

C    -2.80476   1.02984   0.09877
C    -2.19138  -0.11126  -0.66551
O    -2.52577  -0.38753  -1.81395
C    -1.10953  -0.88801  -0.01948
C    -0.82295  -2.27701  -0.51988
N    -0.93631  -0.68308   1.31042
N    -0.18008  -0.24545   2.07104
C     1.37188   0.43184   0.70654
C     2.39558  -0.52416   1.27659
O     3.14566  -0.06843   2.18263
O     2.43354  -1.70306   0.81732
C     0.79003   0.24618  -0.53743
C     0.24250   1.40393  -1.34482
O     0.05804   1.19023  -2.57479
O     0.00920   2.49396  -0.74715
H    -3.38634   0.63850   0.94928
H    -3.46550   1.60040  -0.56557
H    -2.01868   1.68592   0.49756
H    -0.75531  -2.22827  -1.61549
H     0.12685  -2.64641  -0.11321
H    -1.63685  -2.96821  -0.25635
H     1.36298   1.43567   1.13384
H     1.09347  -0.62235  -1.12481
23

C    -2.80445   1.02859   0.09855
C    -2.18792  -0.10935  -0.66775
O    -2.52565  -0.38799  -1.81349
C    -1.08855  -0.87615  -0.02686
C    -0.82157  -2.27345  -0.52055
N    -0.94224  -0.68613   1.31796
N    -0.16309  -0.23759   2.05727
C     1.35474   0.42397   0.71992
C     2.39422  -0.52478   1.27743
O     3.14550  -0.06752   2.18127
O     2.43422  -1.70251   0.81605
C     0.76873   0.23518  -0.53315
C     0.24023   1.40231  -1.34444
O     0.05927   1.19036  -2.57489
O     0.01112   2.49269  -0.74655
H    -3.38560   0.63727   0.94926
H    -3.46608   1.59975  -0.56523
H    -2.01891   1.68580   0.49772
H    -0.75584  -2.22965  -1.61582
H     0.12653  -2.64740  -0.11354
H    -1.63829  -2.96404  -0.25418
H     1.36258   1.43525   1.13323
H     1.09493  -0.62159  -1.12526
23

C    -2.80413   1.02733   0.09833
C    -2.18445  -0.10745  -0.66999
O    -2.52553  -0.38846  -1.81303
C    -1.06757  -0.86430  -0.03423
C    -0.82020  -2.26988  -0.52121
N    -0.94817  -0.68919   1.32550
N    -0.14611  -0.22973   2.04350
C     1.33760   0.41610   0.73331
C     2.39287  -0.52540   1.27827
O     3.14533  -0.06662   2.17991
O     2.43489  -1.70196   0.81478
C     0.74743   0.22417  -0.52886
C     0.23796   1.40069  -1.34406
O     0.06050   1.19048  -2.57499
O     0.01304   2.49141  -0.74596
H    -3.38486   0.63604   0.94923
H    -3.46666   1.59910  -0.56489
H    -2.01914   1.68567   0.49788
H    -0.75636  -2.23102  -1.61616
H     0.12621  -2.64839  -0.11387
H    -1.63972  -2.95987  -0.25202
H     1.36218   1.43482   1.13262
H     1.09639  -0.62082  -1.12571
23

C    -2.80382   1.02607   0.09811
C    -2.18098  -0.10554  -0.67223
O    -2.52541  -0.38892  -1.81257
C    -1.04658  -0.85244  -0.04161
C    -0.81883  -2.26631  -0.52187
N    -0.95410  -0.69225   1.33305
N    -0.12912  -0.22188   2.02973
C     1.32045   0.40822   0.74670
C     2.39151  -0.52602   1.27910
O     3.14517  -0.06571   2.17855
O     2.43557  -1.70141   0.81351
C     0.72613   0.21317  -0.52458
C     0.23569   1.39907  -1.34368
O     0.06173   1.19061  -2.57509
O     0.01496   2.49013  -0.74537
H    -3.38412   0.63480   0.94921
H    -3.46723   1.59845  -0.56455
H    -2.01936   1.68554   0.49804
H    -0.75689  -2.23239  -1.61649
H     0.12589  -2.64938  -0.11420
H    -1.64116  -2.95570  -0.24985
H     1.36178   1.43440   1.13201
H     1.09785  -0.62005  -1.12616
23

C    -2.80350   1.02482   0.09789
C    -2.17752  -0.10363  -0.67447
O    -2.52529  -0.38939  -1.81211
C    -1.02560  -0.84058  -0.04898
C    -0.81746  -2.26275  -0.52254
N    -0.96003  -0.69530   1.34059
N    -0.11213  -0.21402   2.01596
C     1.30331   0.40035   0.76008
C     2.39016  -0.52664   1.27994
O     3.14501  -0.06480   2.17718
O     2.43624  -1.70086   0.81224
C     0.70483   0.20217  -0.52029
C     0.23343   1.39745  -1.34330
O     0.06296   1.19073  -2.57518
O     0.01688   2.48886  -0.74477
H    -3.38338   0.63357   0.94919
H    -3.46781   1.59780  -0.56421
H    -2.01959   1.68542   0.49820
H    -0.75742  -2.23377  -1.61682
H     0.12557  -2.65037  -0.11453
H    -1.64260  -2.95153  -0.24769
H     1.36138   1.43397   1.13140
H     1.09931  -0.61928  -1.12661
23

C    -2.80319   1.02356   0.09767
C    -2.17405  -0.10172  -0.67671
O    -2.52517  -0.38985  -1.81165
C    -1.00462  -0.82872  -0.05636
C    -0.81609  -2.25918  -0.52320
N    -0.96596  -0.69836   1.34813
N    -0.09515  -0.20616   2.00219
C     1.28617   0.39248   0.77347
C     2.38880  -0.52726   1.28078
O     3.14484  -0.06390   2.17582
O     2.43692  -1.70031   0.81097
C     0.68353   0.19116  -0.51601
C     0.23116   1.39584  -1.34292
O     0.06419   1.19086  -2.57528
O     0.01879   2.48758  -0.74418
H    -3.38264   0.63234   0.94917
H    -3.46839   1.59715  -0.56387
H    -2.01982   1.68529   0.49836
H    -0.75794  -2.23514  -1.61715
H     0.12525  -2.65136  -0.11486
H    -1.64403  -2.94736  -0.24552
H     1.36098   1.43355   1.13079
H     1.10077  -0.61851  -1.12706
23

C    -2.80287   1.02230   0.09745
C    -2.17058  -0.09981  -0.67895
O    -2.52505  -0.39032  -1.81119
C    -0.98363  -0.81687  -0.06373
C    -0.81471  -2.25562  -0.52386
N    -0.97189  -0.70142   1.35567
N    -0.07816  -0.19830   1.98843
C     1.26902   0.38460   0.78686
C     2.38745  -0.52788   1.28161
O     3.14468  -0.06299   2.17446
O     2.43759  -1.69976   0.80970
C     0.66223   0.18016  -0.51172
C     0.22889   1.39422  -1.34254
O     0.06542   1.19098  -2.57538
O     0.02071   2.48631  -0.74359
H    -3.38190   0.63110   0.94914
H    -3.46897   1.59649  -0.56354
H    -2.02005   1.68516   0.49851
H    -0.75847  -2.23651  -1.61749
H     0.12493  -2.65235  -0.11519
H    -1.64547  -2.94319  -0.24336
H     1.36058   1.43312   1.13017
H     1.10223  -0.61775  -1.12751
23

C    -2.80256   1.02105   0.09723
C    -2.16712  -0.09791  -0.68119
O    -2.52492  -0.39078  -1.81073
C    -0.96265  -0.80501  -0.07111
C    -0.81334  -2.25205  -0.52452
N    -0.97783  -0.70448   1.36322
N    -0.06117  -0.19045   1.97466
C     1.25188   0.37673   0.80024
C     2.38609  -0.52850   1.28245
O     3.14452  -0.06208   2.17310
O     2.43827  -1.69922   0.80843
C     0.64093   0.16916  -0.50744
C     0.22662   1.39260  -1.34216
O     0.06666   1.19111  -2.57548
O     0.02263   2.48503  -0.74299
H    -3.38116   0.62987   0.94912
H    -3.46954   1.59584  -0.56320
H    -2.02028   1.68504   0.49867
H    -0.75900  -2.23789  -1.61782
H     0.12461  -2.65334  -0.11552
H    -1.64691  -2.93902  -0.24119
H     1.36018   1.43270   1.12956
H     1.10369  -0.61698  -1.12796
23

C    -2.80224   1.01979   0.09701
C    -2.16365  -0.09600  -0.68343
O    -2.52480  -0.39125  -1.81027
C    -0.94167  -0.79315  -0.07849
C    -0.81197  -2.24848  -0.52519
N    -0.98376  -0.70753   1.37076
N    -0.04419  -0.18259   1.96089
C     1.23474   0.36886   0.81363
C     2.38474  -0.52912   1.28329
O     3.14435  -0.06118   2.17174
O     2.43895  -1.69867   0.80716
C     0.61963   0.15816  -0.50315
C     0.22435   1.39098  -1.34178
O     0.06789   1.19123  -2.57557
O     0.02455   2.48375  -0.74240
H    -3.38042   0.62864   0.94910
H    -3.47012   1.59519  -0.56286
H    -2.02051   1.68491   0.49883
H    -0.75952  -2.23926  -1.61815
H     0.12429  -2.65433  -0.11585
H    -1.64835  -2.93486  -0.23903
H     1.35978   1.43227   1.12895
H     1.10515  -0.61621  -1.12841
23

C    -2.80193   1.01853   0.09679
C    -2.16018  -0.09409  -0.68567
O    -2.52468  -0.39171  -1.80981
C    -0.92069  -0.78129  -0.08586
C    -0.81060  -2.24492  -0.52585
N    -0.98969  -0.71059   1.37830
N    -0.02720  -0.17473   1.94712
C     1.21759   0.36099   0.82702
C     2.38338  -0.52974   1.28412
O     3.14419  -0.06027   2.17037
O     2.43962  -1.69812   0.80589
C     0.59833   0.14715  -0.49887
C     0.22208   1.38936  -1.34140
O     0.06912   1.19136  -2.57567
O     0.02647   2.48248  -0.74181
H    -3.37968   0.62740   0.94908
H    -3.47070   1.59454  -0.56252
H    -2.02074   1.68478   0.49899
H    -0.76005  -2.24063  -1.61849
H     0.12397  -2.65532  -0.11618
H    -1.64978  -2.93069  -0.23687
H     1.35938   1.43185   1.12834
H     1.10661  -0.61544  -1.12886
23

C    -2.80161   1.01728   0.09657
C    -2.15672  -0.09218  -0.68791
O    -2.52456  -0.39217  -1.80935
C    -0.89970  -0.76944  -0.09324
C    -0.80923  -2.24135  -0.52651
N    -0.99562  -0.71365   1.38585
N    -0.01022  -0.16687   1.93335
C     1.20045   0.35311   0.84040
C     2.38203  -0.53036   1.28496
O     3.14402  -0.05936   2.16901
O     2.44030  -1.69757   0.80462
C     0.57703   0.13615  -0.49458
C     0.21981   1.38775  -1.34102
O     0.07035   1.19148  -2.57577
O     0.02839   2.48120  -0.74122
H    -3.37894   0.62617   0.94906
H    -3.47128   1.59389  -0.56218
H    -2.02097   1.68466   0.49915
H    -0.76058  -2.24200  -1.61882
H     0.12365  -2.65631  -0.11651
H    -1.65122  -2.92652  -0.23470
H     1.35898   1.43142   1.12773
H     1.10807  -0.61467  -1.12931
