15

C -4.265037408 -0.604984991 -0.109677153
C -1.968665503 -0.383181259 -1.257712495
C -1.006356583 2.096659242 -1.573038281
N 1.320936136 2.053789199 -0.727541156
C 2.076092654 -0.438019600 -0.156756391
N 4.554899550 -0.796073208 0.631843233
C 0.166016012 -2.003500884 -0.771530296
H -5.627095080 0.919299754 -0.167011954
H -4.845662714 -2.351260304 0.779877953
H -0.395054408 0.994439139 3.539342892
H -2.033325751 3.832281943 -1.866379579
H 2.480975282 3.547624957 -0.536658295
H 4.791010625 -0.098833942 2.398609509
H 5.018089716 -2.645128685 0.623048694
H 0.065476346 -3.984190034 -0.311387786

