13

C -1.225405680 2.448258170 0.476678143
C -0.731236289 -0.026086800 -0.832831669
C 1.466685628 -1.539580453 0.244169491
O 3.647633572 -0.152136729 -0.446217779
C -3.748246918 -1.436441639 -1.422325252
N -3.093225022 -2.523244865 0.409646666
H -2.719039823 3.508775721 -0.459126083
H -1.762492187 2.138239094 2.441369929
H 0.518851293 3.549727447 0.432327877
H -0.385355106 0.200904740 -2.846478588
H 1.481835203 -3.433721545 -0.580287310
H 1.294060640 -1.711389684 2.297233488
H 5.108898880 -0.976052746 0.233350166

