13

O -2.491764598 -2.687520042 1.242165510
C -0.412430138 -2.758178508 2.616338084
C 1.192204401 -1.627003964 0.478402348
C 1.957263160 1.139052812 0.896452682
C -0.153022633 2.592499378 -0.338590148
C -1.906739197 1.131851765 -1.386235716
C -1.284885887 -1.587860858 -1.024520555
H 2.106257993 1.591162776 2.911440342
H 2.716408833 -2.855133401 -0.153130177
H 3.785301632 1.586688415 0.049351388
H -0.215101497 4.639737501 -0.323385071
H -3.591748947 1.790782181 -2.337787067
H -1.583531325 -2.830311093 -2.639118770

