16

C -1.689210555 -2.038295089 -2.672398661
C -2.085499011 -1.800203845 0.054576897
C -0.013415506 -0.542506053 1.469016719
C 2.675494486 -0.463744706 0.407132007
C -1.061863490 2.163837872 1.936800317
O -1.178287929 3.668317361 -0.258686575
H -0.424620289 -0.693256403 -3.610508523
H -3.435723861 -2.290446896 -3.732948962
H -0.727047258 -3.897838262 -2.710364431
H -2.981815387 2.045578339 2.670606237
H 0.032905801 -1.370154808 3.367617829
H 3.943891284 0.490773610 1.729041352
H 3.412028906 -2.367866367 0.112882809
H 2.789454420 0.519459633 -1.402289658
H 0.129822408 3.047879268 3.381473301
H 0.497238873 4.186797833 -0.709042968

