16

C -1.946319775 -1.649034203 -2.303206326
C -1.953074110 -1.554079017 0.539552165
C 0.411694902 -0.554442168 1.691695904
C 2.943078893 -0.510661824 0.337175480
C -1.204239217 1.841610844 1.510848906
O -0.537634944 3.639014172 -0.275501093
H -0.925080086 -0.153226194 -3.305495010
H -3.856619896 -1.775515348 -3.061765958
H -1.005990714 -3.442026078 -2.746221852
H -3.179035917 0.968875472 0.976412437
H 0.666757379 -1.135316332 3.650162403
H 4.264635709 0.775753456 1.272572280
H 3.794531527 -2.386994458 0.398486321
H 2.799153118 0.027155194 -1.645653218
H -1.697364232 2.629399871 3.350792936
H 1.269667337 3.780541809 -0.336113454

