17

C -3.402851432 0.801916676 -0.613216978
C -2.186148621 -1.633385891 0.257162624
C 0.415312310 -2.569106156 -0.353027051
C 2.767334628 2.794237808 -1.882329245
C 2.536828859 1.916986388 0.446883341
C 2.046896007 -0.786965144 1.094205567
C -0.263370922 -1.878680562 2.304081704
H -3.973061758 0.656736312 -2.592593581
H -5.098889114 1.160080172 0.508241293
H -2.158811654 2.422366050 -0.423771915
H -3.544020607 -3.184020844 0.288507417
H 0.923123388 -4.421195550 -1.036000660
H 3.221822359 4.755436323 -2.253174429
H 2.471742156 1.570215068 -3.501009136
H 2.843905499 3.174609895 2.043657375
H 3.762458698 -1.673114567 1.822224767
H -0.307320320 -3.123611044 3.917546726

