15

N -3.895319370 -1.367944981 0.237167602
C -1.701271146 0.041546271 0.041761020
C 0.552214672 -1.084972856 -1.315636852
C 3.020561916 0.361788123 -1.033502121
O 3.938574615 0.341130166 1.476930495
C -2.066744802 2.877109631 -0.134383565
N -1.194106902 2.591429434 2.076882370
H -3.873431731 -2.901879500 1.361115473
H -5.514856743 -0.374910155 0.316427005
H -0.743868674 0.345606172 2.411097821
H 0.034178456 -1.149224470 -3.318073291
H 0.830341199 -3.033764109 -0.686886420
H 2.801818123 2.295647441 -1.731382949
H 4.448318411 -0.558767997 -2.203208899
H 3.294411010 1.803050075 2.337371214

