9

C -3.697692681 -0.447378544 -1.495575856
C -2.459256168 0.283454157 0.937058493
C -1.531460696 -1.319924187 2.618848320
H -1.613075795 -3.348162399 2.324502784
H -2.332140830 2.299264887 1.319025736
H -0.660293004 -0.665993041 4.351743107
H -5.640861149 0.250015491 -1.569879339
H -2.704801474 0.379173679 -3.107321888
H -3.735029871 -2.494321926 -1.736989162

