16

C -4.095417934 -1.142900540 -0.864313505
C -2.393356203 0.541050378 0.760359860
C 0.268206504 -0.370929560 1.127957682
O 1.437067062 -0.597856793 -1.595123963
C 3.672092996 1.200502359 0.081600037
O 5.572016442 1.058964197 -1.722312396
H -5.984798126 -0.336715161 -1.079059091
H -3.304603909 -1.381379630 -2.756393832
H -4.299384409 -3.017261528 -0.019495926
H -2.375614622 2.456150895 -0.034987183
H -3.202937532 0.733960821 2.655836780
H 0.301131278 -2.312464133 1.851520851
H 2.095996855 -2.271077014 -1.870453526
H 4.466920195 0.449061439 1.801995570
H 2.793926759 3.039081704 0.221912939
H 5.027604865 1.896498412 -3.240145351

