16

C 1.955167529 3.038865803 0.002855244
C 1.372551189 1.216089009 -1.944617037
N 3.189464408 -0.704971572 -1.943968691
C 1.996495575 -2.190860975 0.038041736
C -0.257908291 -0.463867122 0.117829507
C -2.211996163 0.031242143 2.092282939
C -2.970198900 -1.099127755 -0.384839985
H 0.497104873 4.028064996 1.049387839
H 3.843084430 3.026552858 0.789416516
H 0.386793735 1.827848063 -3.667300670
H 3.060459496 -2.441277956 1.799469347
H 1.475381921 -4.076609282 -0.662332963
H -2.791567096 1.955301870 2.478256590
H -2.133698441 -1.173645458 3.745075429
H -3.455813596 -3.084736202 -0.481424738
H -3.994984150 0.093001548 -1.693100046

