9

N -5.157653700 -2.230364792 0.522487938
C -3.224552031 -0.927165324 0.483460710
O 3.331562327 -0.619158258 -1.394668128
C 2.833939650 1.471725717 0.056639438
O 3.722420031 1.986879458 -2.314925387
C -1.401727389 0.649834749 0.514452256
N 0.311348309 2.236854319 0.586359869
H -4.823473191 -4.088338737 0.121448219
H 4.104793357 1.832369157 1.635124533

