16

C 4.181615259 -0.013018456 -1.093250745
C 2.107563529 0.001684124 0.766022746
C -0.234693723 1.366066386 1.589704852
C -2.700025569 1.266899152 0.110902300
C -3.157312948 -1.199475255 -1.292908549
C 0.981121653 -0.937263548 2.710898203
H 5.503544578 -1.552724462 -0.738894914
H 3.430829734 -0.210036218 -3.006114034
H 5.209769588 1.776065240 -1.029945014
H 0.003753601 3.161449086 2.585793930
H -4.264428935 1.612265990 1.422079248
H -2.729631417 2.844511099 -1.229723364
H -3.195481013 -2.807552554 0.000835202
H -4.958400505 -1.152702927 -2.296111576
H -1.674445992 -1.569532782 -2.681668618
H 0.895653970 -2.346469565 4.175297621

