15

C 1.455334308 1.932470180 0.196147241
C 1.850748766 -0.922519640 -0.399842842
C 0.849529497 -2.411968361 1.743879821
O -1.364597369 -1.735285422 2.609837180
C -2.602887599 0.161019387 1.619884572
C -1.363144605 1.475301608 -0.512511658
C -0.310657785 -0.555419345 -2.363413171
H 1.893749559 2.607657362 2.091393237
H 2.376359155 3.099581040 -1.223528974
H 3.691583707 -1.582150238 -1.031594802
H 1.694274019 -4.003456283 2.688366034
H -4.404005940 0.554588508 2.480177137
H -1.501769490 -2.170017654 -2.826821090
H -2.489225675 3.029934088 -1.246081344
H 0.412465041 0.328767446 -4.072687723

