15

C 1.496209008 2.168948334 0.407197959
C 2.191437076 -0.528229172 -0.299878654
C 0.759185187 -2.410960627 1.149969268
O -1.238768822 -1.829356650 2.455176760
C -2.805361700 -0.054256531 1.161949395
C -1.185500976 1.527539836 -0.599550233
C -0.151323391 -0.773696678 -2.042319657
H 1.671266150 2.736769404 2.381374904
H 2.481881991 3.512732581 -0.801556929
H 4.077975006 -1.100845403 -0.861518865
H 1.371099256 -4.363922694 1.283857347
H -4.048480029 0.821342853 2.552263707
H -2.373774785 -1.761482280 -1.185079756
H -2.281582871 2.934782901 -1.623700383
H 0.061061265 -0.964894877 -4.069016419

