11

N -3.151898826 0.598733059 0.081225550
C -0.394892742 0.335718709 0.042238270
C 1.141517582 -1.759081950 -0.231950446
C 3.511282953 -0.594675968 -0.078623870
N 3.304458193 1.905202188 0.248958019
N 0.844230856 2.485969715 0.324365707
H -3.981294615 -0.337936718 1.544598243
H -3.988950897 0.047648632 -1.562503435
H 0.674454913 -3.725052042 -0.493153965
H 5.348791844 -1.478451498 -0.192817941
H -3.415804824 2.503136308 0.320039235

