11

N -3.258388975 0.551777767 0.049277311
C -0.602091215 -0.082120581 -0.013507554
C 1.205618244 -1.931066907 -0.258157754
C 3.425192360 -0.468903904 -0.038277102
N 2.953606406 1.990404477 0.300539038
N 0.449165922 2.177820844 0.308232151
H -4.250295352 -0.143638555 1.532590469
H -4.221010569 0.287582641 -1.585154184
H 1.018487529 -3.937168149 -0.538503878
H 5.354136462 -1.134437949 -0.115037550
H -2.114320490 2.692256092 0.354561640

