17

C -3.428761939 1.176465628 0.066786190
C -2.803930402 -1.417227357 -0.845078002
C -0.871354209 -2.855538634 -0.119634347
C 2.795371379 1.833128222 -2.201116632
C 2.789884106 1.919912496 0.305008524
C 2.544097104 -0.252114825 2.016457602
C 1.052049103 -2.275942548 1.800364510
H -2.908062438 2.587210223 -1.353377215
H -5.456894799 1.362333307 0.400693691
H -2.423039321 1.645444252 1.801966469
H -4.076220887 -2.204117101 -2.252092032
H -0.747288927 -4.744607209 -0.919208159
H 2.567950437 0.068397106 -3.214008134
H 3.038358355 3.533115696 -3.314479996
H 3.088495794 3.733561951 1.225252045
H 3.765402740 -0.181822418 3.666920948
H 1.293698247 -3.739798746 3.223576630

