13

O 1.484953157 2.066272748 -2.686151823
C 1.801833413 1.132937752 -0.489005469
C 1.410548649 -1.765951652 -0.221430473
C -1.398911111 -1.771254356 0.600835001
C -2.024111390 0.813562661 -0.283997434
N 2.089917625 2.304972805 1.687888162
H 1.658706161 -2.665746447 -2.050293035
H 2.616169577 -2.602866642 1.211831645
H -2.547886213 -3.200124486 -0.338649221
H -1.574874225 -1.907420329 2.643128089
H -2.543372262 1.098678700 -2.237048621
H -2.471615374 2.310895603 1.027442450
H 2.250301346 4.193466507 1.327728454

