14

C -3.812785752 1.443676380 -0.233283175
C -1.105331348 0.672211034 -0.012285299
C 0.885569352 2.179043856 0.622891582
N 3.047143087 0.712614418 0.614664168
C 2.420162270 -1.683769069 -0.017298383
O 4.296648104 -3.417990897 -0.125240692
C -0.126863381 -1.815681420 -0.426797366
H -4.529764662 1.134695179 -2.145039727
H -4.053898799 3.441022426 0.214304675
H -5.008849484 0.358469632 1.053432061
H 0.958150218 4.161158672 1.082520313
H 4.807976265 1.285148540 1.013556100
H -1.183764979 -3.477951208 -0.957214520
H 3.579031166 -5.019515665 -0.573241258

