14

C -3.634970460 1.307027052 -0.546700621
C -0.956582010 0.567092127 -0.085088642
C 0.932222382 2.072487812 0.723373989
N 3.155840058 0.630049921 1.101672517
C 2.644242592 -1.757182492 0.426176402
O 4.141906293 -3.539946584 -0.295152922
C 0.051935381 -2.007938830 -0.238906717
H -4.187093972 0.882601462 -2.489628017
H -3.927152071 3.319314501 -0.214150983
H -4.913646329 0.261107654 0.692957411
H 0.934555816 4.071255839 1.121346777
H 4.915426225 1.345384694 1.073691966
H -1.013360343 -3.639505425 0.397039774
H 1.948560631 -3.522324510 -1.594371569

