15

C 3.892816031 0.335042716 0.000526969
C 1.081377199 0.431095775 0.187459773
O -0.176666962 1.891986237 -1.895768014
C -2.498960183 1.827880850 -0.340135207
C -3.130024169 -0.932031255 0.016540659
C -0.454195542 -1.976568300 0.415340127
C -0.249220861 2.764544863 1.091043847
H 4.657380664 2.223310218 -0.285831545
H 4.646784743 -0.411273399 1.770021385
H 4.502817678 -0.905466581 -1.530765088
H -3.912718948 3.160397851 -0.996902983
H -4.360512041 -1.185346737 1.651037256
H -4.071417449 -1.737550769 -1.631605618
H 0.087594626 -3.371482337 -1.004737750
H -0.178236398 -2.816804804 2.278482794

