14

C 5.151282583 0.889609889 -1.216171458
C 3.148272499 1.017549186 0.321783320
C 0.672555928 0.600734902 -0.742453099
C -1.164789918 -0.235738780 1.045234599
C -3.899459193 0.625980887 0.498020917
C -3.229468493 -1.998432506 -0.009940942
H 3.445903853 1.247699441 2.355895821
H 7.076794810 0.918412717 -0.511879299
H 4.859387247 0.678027460 -3.232440088
H -0.732547570 -0.515414883 3.042929697
H -4.991412849 1.067285209 2.168693145
H -4.110859926 1.908613295 -1.075183300
H -3.842468341 -3.448288536 1.293764652
H -2.965609871 -2.585696477 -1.946558183

