14

C 5.389062985 1.257429262 -1.044476762
C 2.904058184 0.455099625 -0.163543910
C 0.861999347 -0.204847446 0.567811319
C -1.595475925 -0.986305663 1.443822739
C -3.861554689 0.668239831 0.948253118
C -3.586180831 -1.775684309 -0.435960630
H 6.264572948 2.554928826 0.298223122
H 5.243651791 2.224120268 -2.860242389
H 6.645278231 -0.360157668 -1.285058041
H -1.586979414 -1.995196483 3.225161429
H -5.270566216 0.801773321 2.423582126
H -3.531961678 2.399350981 -0.086313184
H -4.805748826 -3.331893048 0.083904142
H -3.070155907 -1.706857498 -2.412138739

