14

O 4.029539096 0.259102654 1.250350632
C 1.667435278 -0.742294475 0.509339942
C -0.121504892 1.349122081 -0.362349070
N -2.438582621 0.273356594 -1.319397426
C -4.478298028 0.881182164 -0.265377755
C 2.068901093 -2.692322894 -1.564779044
O 1.539887325 -4.881555170 -1.399118017
H 4.715090689 1.249948782 -0.108539954
H 0.897120077 -1.713045765 2.156261412
H -0.404568613 2.686739509 1.200004095
H 0.783781466 2.371109137 -1.923151751
H 2.996471744 -1.924662304 -3.294223549
H -6.241714348 0.076321125 -0.950964988
H -4.580795885 2.200600547 1.331497588

