14

C 3.239700094 2.326787142 0.148137256
H 3.588877678 2.181923855 2.168652176
H 4.127578730 3.896472481 -0.812413292
C 0.942599851 1.255524853 -0.916569837
N 3.281205377 -0.001599729 -1.443083251
C 2.156004863 -2.093799898 0.037555604
H 2.990054820 -2.227997135 1.914026377
H 2.222988586 -3.877754158 -0.981387405
C -0.489572405 -0.861210726 0.308235005
C -2.551397967 -0.945837518 1.940348826
H -3.473814239 0.548720096 2.979857574
C -3.091315303 -1.881445099 -0.565152965
H -3.005447187 -3.891976369 -0.980470964
H -4.219337046 -0.788156843 -1.908760542

