8

C -0.225884482 1.010600776 -3.884756935
C 0.979494183 2.173340719 -2.019848168
C 2.928762951 0.855783055 -0.492308351
O 3.554449986 -1.308376751 -0.803385182
H 3.820243424 2.005022322 1.013853467
H 0.588548361 4.129443927 -1.545112286
H -1.647627112 1.961710763 -5.007594158
H 0.199111295 -0.945435895 -4.323074885

