13

C -1.705053452 -2.548467153 -0.708570819
O 0.443571520 -2.663429246 0.848881624
C 1.971131671 -0.688433369 1.205689563
C 1.893338204 1.822405255 0.505624948
N 0.444410918 2.809698697 -1.696231757
C -0.701368639 3.364418012 0.563265375
H -3.037976857 -1.111769003 -0.043932051
H -2.587067039 -4.401189171 -0.608057818
H 3.546105201 -1.267646860 2.381492521
H -1.180032675 -2.161026791 -2.672444185
H 3.547775341 2.908400113 0.999472613
H -0.365776428 1.485216755 -2.850046353
H -2.514285579 2.390981176 0.899431590

