13

C -1.766856189 -2.070624466 0.040574385
O 0.298954144 -2.652483367 1.595815622
C 2.063753914 -1.171438787 0.313274715
C 1.398183623 1.606157734 0.590697603
N 0.658284735 2.913907644 -1.767027152
C -1.154599248 2.106643591 -0.070666422
H -3.453361355 -1.495719720 1.075227822
H -2.252293363 -3.729943655 -1.099185789
H 3.993642350 -1.731372631 0.784325008
H -0.367717007 -1.188010759 -1.613670095
H 2.420094750 2.725409995 1.969184063
H 0.913895497 1.745245980 -3.306378098
H -2.920139129 2.906302857 0.541022618

