14

O 2.368307410 -2.225642499 -2.059132135
C 0.828727014 1.055240718 -1.292481717
C -1.925557127 0.609756851 -0.848504434
C -1.913595765 -0.314784342 1.896201063
O 0.203120595 0.866678478 3.025332284
C 2.025826241 1.109932699 1.085159920
H 1.449902763 -3.787432752 -2.274274601
H 1.573831361 1.852411744 -3.014033914
H -2.817907252 -0.678003914 -2.178999882
H -2.857980840 2.453387510 -1.000200479
H -1.697284391 -2.378523364 1.954999740
H -3.599258227 0.207651743 2.955363757
H 3.571764507 2.360454464 1.556848978
H 2.773453315 -1.172890304 0.103908405

