13

O 2.213516825 1.340710041 -3.005539368
C 2.633981002 0.150117424 -0.933877291
C 0.464874932 -0.046317868 0.490790069
C -0.222402869 -1.186387730 2.964063262
C -1.634565722 -1.922770159 0.626444002
C -0.499300526 2.415959689 -2.069340586
O -2.340977775 2.018969237 -3.287165044
H 4.589250444 -0.253005359 -0.415712554
H -1.178637132 0.030301872 4.305044686
H 1.054616712 -2.550051726 3.807850619
H -3.516172544 -1.178856264 0.297301937
H -1.296738230 -3.776978276 -0.170381449
H 0.121122298 4.184934922 -1.202941901

