12

O 4.746977134 -0.321974655 -1.486719371
C 2.639075552 -0.824706527 -1.548212382
C 0.619455965 0.380900794 1.269100589
C -0.977602908 2.410173934 0.151357028
N -2.215299442 0.503430901 1.647633046
C -1.620206185 -1.827770547 0.469937565
O -1.665005091 -2.313225541 -1.905053070
H 0.570279944 -1.840567205 -2.486359225
H 1.759731902 0.594226534 2.952921569
H -1.244112759 2.408193312 -1.886355609
H -0.968289808 4.246498325 1.051868010
H -1.702540796 -3.388025869 1.818205906

