15

C -3.689969730 -0.727257168 -0.808223505
C -2.751218892 1.894651601 -0.343810233
C -0.374900857 2.731700932 -0.460248958
C 1.895743806 1.273766625 -1.025285535
C 2.403815175 -1.097818648 -0.320379726
C 4.812738356 -2.321327080 -1.013831187
O 6.430882301 -1.372305317 -2.307528470
H 5.081755987 -4.252013227 -0.247166010
H 1.115791738 -2.182715971 0.845982085
H 3.368398758 2.246332146 -2.079820289
H -0.066878844 4.743165651 -0.194491784
H -4.194978798 3.289733050 0.085434518
H -4.013581171 -1.719733808 0.976802986
H -2.362344550 -1.844335205 -1.918565537
H -5.497503143 -0.676226362 -1.799123149

