10

N -2.141346446 -1.504496024 -0.735155411
C -0.523868780 -1.200427677 1.055630644
C 2.033904707 -0.607297543 0.628336828
C 4.261812987 -0.307117439 0.377657457
C -1.549418084 3.666412933 0.165534245
N -1.604878200 3.565994531 -2.035663853
H -1.821332646 -0.532594326 -2.374958755
H -3.966422659 -1.830071401 -0.294076383
H -1.093137834 -1.664251921 2.970280971
H 6.231884692 0.021248836 0.112253700

