12

C 3.409364505 -0.614055563 0.620564346
N 0.664876100 2.546665790 0.738788655
C -0.991007188 1.060346758 0.025836090
N -0.212678357 -1.553919884 -0.410531398
C -3.703471464 1.672498403 -0.430993031
O -5.252919367 0.154467385 -1.124637433
H 3.794131188 -2.588516553 0.223950082
H 4.374251465 0.662162094 -0.644302727
H 3.618693153 -0.134237583 2.591977001
H -0.472171316 -2.130702639 -2.230129446
H -1.138928978 -2.821522732 0.705883081
H -4.177360049 3.671229240 -0.069901253

