8

C -3.463780114 0.780366674 -1.792906706
H -4.114601187 0.839084943 -3.716592191
C -2.682220078 2.422133746 -0.056704105
H -2.371671444 4.429817312 0.169397091
O -2.210542340 0.768148858 1.893652125
C -3.032714461 -1.230935642 0.171133938
H -1.499279851 -2.566928530 -0.161065232
H -4.695227211 -2.184785486 0.927816259

