14

C -4.265957327 0.143729867 0.138531211
O -3.932529778 -0.713857952 -2.362512868
C -1.519724382 -1.298936832 -3.008680244
C 0.480939192 -1.149748151 -1.566654880
C 2.532637767 -1.017369492 -0.210515547
C 4.211912407 1.262416080 -0.022990087
H -3.166414077 1.862562105 0.482657727
H -6.270629728 0.540249644 0.364253819
H -3.679998703 -1.299695992 1.499605942
H 3.097047674 -2.665560404 0.885281812
H -1.400367277 -1.944798923 -4.948252260
H 4.294750932 1.945812327 1.924639060
H 6.142908090 0.790458208 -0.582491940
H 3.531587909 2.787601846 -1.226219736

