12

N -3.505803296 0.297020236 -0.042719565
C -0.913082914 0.038155479 0.069744368
C 0.429966305 2.492200349 0.383883217
N 2.642318832 3.077376116 -0.274583782
C 4.887329361 -3.090264596 0.677378093
N 2.751356899 -2.607602995 0.412509544
C 0.200009879 -2.242110064 0.061508866
H -4.160737225 1.897736466 -0.830936803
H -4.512558706 -1.244311294 -0.514127885
H -0.727292280 3.956304706 1.272909521
H 3.573606461 1.603857597 -1.090328378
H -0.886942616 -3.961497031 -0.156198469

