12

N -3.800345193 0.109630231 0.079146436
C -1.183506030 0.034374269 0.044678681
C 0.292398911 2.207868491 0.208225615
N 2.791973331 2.138136368 0.274891411
C 3.863952260 -0.125136814 0.180780536
N 2.657944089 -2.316286897 0.023184256
C 0.159172879 -2.227599877 -0.042023654
H -4.588005095 1.744301514 -0.486629308
H -4.678844514 -1.411874349 -0.646446546
H -0.592240167 4.061826446 0.291001118
H 5.911647659 -0.191457924 0.237280173
H -0.834148147 -4.023781459 -0.164088699

