13

C -3.447502353 0.016794374 1.790391424
H -2.996571805 1.277293988 3.345365359
H -5.375097909 -0.671960286 1.758183272
C -2.202584514 0.674371350 -0.714802569
H -3.269656392 0.444910032 -2.453769953
O -0.497957744 2.695515284 -0.767003343
C 1.997623968 1.767249894 -1.164412199
H 3.289171499 3.373551984 -1.182376144
H 2.107409176 0.824880666 -3.012445693
C 2.666120613 0.032271552 0.918598477
H 4.511379498 -0.142265310 1.780751213
O 0.918739280 -1.293164097 1.915309199
C -1.385505772 -1.579008644 0.732410470

