11

O -4.378466593 0.888903680 -0.733588488
C -1.914182431 0.520557829 -0.845753371
N -0.266528333 2.339730953 -1.359775790
C 1.951391989 1.127841879 -1.095834926
O 4.178815006 1.938417488 -0.646963650
C 1.743479067 -1.553816232 -0.622550524
N -0.960011390 -1.749234889 -0.326558923
H -4.686969315 2.643671668 -1.115230924
H 3.999635900 -0.307749836 0.404251157
H 2.523442662 -2.800435260 -2.059725792
H -2.002429504 -3.289704194 0.039850015

