26

C    -3.60269  -0.56767  -1.33835
N    -3.38684   0.66145  -0.59143
C    -2.22605   1.29759  -0.39356
O    -2.11776   2.37008   0.20316
C    -0.93629   0.61215  -0.86662
N    -0.59723   0.58762  -2.11473
N     0.60806   0.38470  -2.53872
C     1.51207  -0.19805  -0.63374
C     1.98772  -1.47407  -1.03221
N     2.38446  -2.49872  -1.43233
C     2.46510   1.00628  -0.34697
C     3.05987   0.83800   1.05852
C     2.03613   1.03978   1.89726
C     0.83313   1.35912   0.99635
O     1.47348   2.02448  -0.10356
C     0.32997   0.08345   0.18083
Br   -0.43448  -1.35977   1.26858
H    -3.64518  -0.37068  -2.41958
H    -4.56681  -1.01630  -1.03276
H    -2.81068  -1.28117  -1.12757
H    -4.24094   1.12884  -0.18517
H     0.51498  -0.40231  -3.30238
H     3.13030   1.26104  -1.16857
H     4.12287   0.61899   1.28200
H     2.04341   1.03402   3.00397
H     0.01101   1.91294   1.42322
26

C    -3.60447  -0.56693  -1.33795
N    -3.39175   0.66134  -0.58882
C    -2.23164   1.30074  -0.39711
O    -2.11987   2.37111   0.20289
C    -0.95239   0.62021  -0.88396
N    -0.58893   0.58726  -2.11199
N     0.60105   0.38957  -2.55785
C     1.51942  -0.20455  -0.62029
C     1.99006  -1.47617  -1.03169
N     2.38417  -2.49983  -1.43618
C     2.46620   1.00575  -0.34510
C     3.06361   0.84413   1.06048
C     2.04060   1.04563   1.89991
C     0.83526   1.35653   0.99887
O     1.47163   2.02061  -0.10349
C     0.34840   0.07242   0.19717
Br   -0.43683  -1.36055   1.26871
H    -3.64515  -0.37013  -2.41942
H    -4.56735  -1.01646  -1.03335
H    -2.81114  -1.28090  -1.12727
H    -4.24196   1.12700  -0.18199
H     0.51076  -0.40166  -3.30621
H     3.12986   1.26046  -1.16874
H     4.12421   0.62163   1.28231
H     2.04484   1.03628   3.00476
H     0.01057   1.91101   1.42336
26

C    -3.60625  -0.56619  -1.33754
N    -3.39666   0.66123  -0.58620
C    -2.23724   1.30389  -0.40065
O    -2.12197   2.37214   0.20263
C    -0.96848   0.62826  -0.90129
N    -0.58063   0.58691  -2.10925
N     0.59405   0.39444  -2.57699
C     1.52678  -0.21105  -0.60684
C     1.99240  -1.47827  -1.03117
N     2.38387  -2.50093  -1.44002
C     2.46731   1.00523  -0.34323
C     3.06735   0.85026   1.06244
C     2.04507   1.05148   1.90256
C     0.83740   1.35395   1.00139
O     1.46977   2.01674  -0.10341
C     0.36684   0.06139   0.21351
Br   -0.43919  -1.36133   1.26884
H    -3.64512  -0.36958  -2.41926
H    -4.56790  -1.01662  -1.03393
H    -2.81160  -1.28063  -1.12698
H    -4.24298   1.12516  -0.17882
H     0.50653  -0.40101  -3.31004
H     3.12942   1.25987  -1.16891
H     4.12554   0.62427   1.28261
H     2.04627   1.03853   3.00554
H     0.01012   1.90909   1.42350
26

C    -3.60803  -0.56546  -1.33713
N    -3.40157   0.66113  -0.58359
C    -2.24284   1.30704  -0.40419
O    -2.12407   2.37316   0.20237
C    -0.98458   0.63632  -0.91863
N    -0.57233   0.58655  -2.10652
N     0.58705   0.39932  -2.59612
C     1.53413  -0.21755  -0.59339
C     1.99475  -1.48037  -1.03064
N     2.38358  -2.50203  -1.44387
C     2.46842   1.00470  -0.34136
C     3.07109   0.85639   1.06440
C     2.04955   1.05734   1.90522
C     0.83953   1.35137   1.00391
O     1.46792   2.01288  -0.10334
C     0.38527   0.05036   0.22985
Br   -0.44154  -1.36211   1.26897
H    -3.64509  -0.36904  -2.41910
H    -4.56844  -1.01678  -1.03452
H    -2.81207  -1.28037  -1.12668
H    -4.24401   1.12332  -0.17564
H     0.50230  -0.40036  -3.31388
H     3.12898   1.25929  -1.16908
H     4.12688   0.62691   1.28292
H     2.04770   1.04079   3.00633
H     0.00968   1.90717   1.42363
26

C    -3.60980  -0.56472  -1.33672
N    -3.40648   0.66102  -0.58098
C    -2.24844   1.31019  -0.40774
O    -2.12618   2.37419   0.20210
C    -1.00068   0.64438  -0.93596
N    -0.56403   0.58619  -2.10378
N     0.58004   0.40419  -2.61525
C     1.54149  -0.22405  -0.57994
C     1.99709  -1.48247  -1.03012
N     2.38329  -2.50313  -1.44771
C     2.46953   1.00417  -0.33948
C     3.07484   0.86251   1.06637
C     2.05402   1.06319   1.90787
C     0.84166   1.34878   1.00643
O     1.46606   2.00901  -0.10326
C     0.40371   0.03932   0.24619
Br   -0.44389  -1.36289   1.26910
H    -3.64506  -0.36849  -2.41893
H    -4.56899  -1.01694  -1.03511
H    -2.81253  -1.28010  -1.12639
H    -4.24503   1.12148  -0.17247
H     0.49808  -0.39972  -3.31771
H     3.12854   1.25870  -1.16925
H     4.12821   0.62954   1.28323
H     2.04913   1.04305   3.00712
H     0.00923   1.90525   1.42377
26

C    -3.61158  -0.56399  -1.33632
N    -3.41138   0.66091  -0.57837
C    -2.25404   1.31335  -0.41128
O    -2.12828   2.37521   0.20184
C    -1.01678   0.65243  -0.95329
N    -0.55574   0.58584  -2.10104
N     0.57304   0.40907  -2.63439
C     1.54884  -0.23055  -0.56649
C     1.99943  -1.48457  -1.02960
N     2.38299  -2.50423  -1.45156
C     2.47064   1.00365  -0.33761
C     3.07858   0.86864   1.06833
C     2.05849   1.06905   1.91052
C     0.84379   1.34620   1.00895
O     1.46421   2.00514  -0.10319
C     0.42214   0.02829   0.26253
Br   -0.44624  -1.36367   1.26922
H    -3.64502  -0.36794  -2.41877
H    -4.56953  -1.01710  -1.03569
H    -2.81299  -1.27983  -1.12609
H    -4.24605   1.11964  -0.16929
H     0.49385  -0.39907  -3.32154
H     3.12810   1.25812  -1.16941
H     4.12955   0.63218   1.28354
H     2.05056   1.04531   3.00790
H     0.00879   1.90333   1.42391
26

C    -3.61336  -0.56325  -1.33591
N    -3.41629   0.66080  -0.57575
C    -2.25964   1.31650  -0.41482
O    -2.13038   2.37624   0.20158
C    -1.03288   0.66049  -0.97063
N    -0.54744   0.58548  -2.09831
N     0.56603   0.41394  -2.65352
C     1.55620  -0.23705  -0.55305
C     2.00178  -1.48667  -1.02908
N     2.38270  -2.50533  -1.45540
C     2.47175   1.00312  -0.33574
C     3.08232   0.87477   1.07029
C     2.06296   1.07490   1.91317
C     0.84593   1.34362   1.01147
O     1.46235   2.00127  -0.10311
C     0.44058   0.01726   0.27887
Br   -0.44859  -1.36445   1.26935
H    -3.64499  -0.36740  -2.41861
H    -4.57008  -1.01726  -1.03628
H    -2.81345  -1.27956  -1.12580
H    -4.24708   1.11779  -0.16612
H     0.48962  -0.39842  -3.32538
H     3.12766   1.25754  -1.16958
H     4.13088   0.63482   1.28385
H     2.05199   1.04756   3.00869
H     0.00834   1.90141   1.42404
26

C    -3.61514  -0.56252  -1.33550
N    -3.42120   0.66069  -0.57314
C    -2.26524   1.31965  -0.41837
O    -2.13249   2.37727   0.20131
C    -1.04898   0.66855  -0.98796
N    -0.53914   0.58512  -2.09557
N     0.55903   0.41881  -2.67266
C     1.56355  -0.24356  -0.53960
C     2.00412  -1.48877  -1.02856
N     2.38241  -2.50643  -1.45925
C     2.47286   1.00259  -0.33387
C     3.08606   0.88090   1.07225
C     2.06744   1.08075   1.91582
C     0.84806   1.34104   1.01399
O     1.46049   1.99740  -0.10304
C     0.45901   0.00623   0.29521
Br   -0.45094  -1.36523   1.26948
H    -3.64496  -0.36685  -2.41845
H    -4.57062  -1.01742  -1.03686
H    -2.81392  -1.27929  -1.12550
H    -4.24810   1.11595  -0.16294
H     0.48539  -0.39777  -3.32921
H     3.12722   1.25695  -1.16975
H     4.13222   0.63746   1.28415
H     2.05342   1.04982   3.00947
H     0.00790   1.89948   1.42418
26

C    -3.61692  -0.56178  -1.33510
N    -3.42611   0.66059  -0.57053
C    -2.27083   1.32280  -0.42191
O    -2.13459   2.37829   0.20105
C    -1.06508   0.67660  -1.00529
N    -0.53084   0.58477  -2.09283
N     0.55202   0.42369  -2.69179
C     1.57091  -0.25006  -0.52615
C     2.00646  -1.49087  -1.02803
N     2.38212  -2.50754  -1.46310
C     2.47396   1.00206  -0.33200
C     3.08981   0.88703   1.07422
C     2.07191   1.08661   1.91847
C     0.85019   1.33845   1.01651
O     1.45864   1.99353  -0.10296
C     0.47745  -0.00480   0.31155
Br   -0.45330  -1.36601   1.26961
H    -3.64493  -0.36630  -2.41829
H    -4.57116  -1.01758  -1.03745
H    -2.81438  -1.27902  -1.12521
H    -4.24912   1.11411  -0.15977
H     0.48117  -0.39712  -3.33304
H     3.12678   1.25637  -1.16992
H     4.13355   0.64010   1.28446
H     2.05485   1.05208   3.01026
H     0.00745   1.89756   1.42432
26

C    -3.61870  -0.56104  -1.33469
N    -3.43102   0.66048  -0.56792
C    -2.27643   1.32595  -0.42545
O    -2.13669   2.37932   0.20078
C    -1.08118   0.68466  -1.02263
N    -0.52254   0.58441  -2.09010
N     0.54502   0.42856  -2.71092
C     1.57826  -0.25656  -0.51270
C     2.00881  -1.49297  -1.02751
N     2.38182  -2.50864  -1.46694
C     2.47507   1.00154  -0.33013
C     3.09355   0.89315   1.07618
C     2.07638   1.09246   1.92113
C     0.85232   1.33587   1.01903
O     1.45678   1.98967  -0.10289
C     0.49588  -0.01583   0.32789
Br   -0.45565  -1.36679   1.26974
H    -3.64490  -0.36576  -2.41813
H    -4.57171  -1.01774  -1.03804
H    -2.81484  -1.27875  -1.12492
H    -4.25015   1.11227  -0.15659
H     0.47694  -0.39647  -3.33688
H     3.12634   1.25579  -1.17009
H     4.13489   0.64274   1.28477
H     2.05628   1.05433   3.01104
H     0.00700   1.89564   1.42445
26

C    -3.62048  -0.56031  -1.33428
N    -3.43592   0.66037  -0.56530
C    -2.28203   1.32911  -0.42900
O    -2.13880   2.38035   0.20052
C    -1.09728   0.69272  -1.03996
N    -0.51424   0.58405  -2.08736
N     0.53801   0.43343  -2.73006
C     1.58562  -0.26306  -0.49925
C     2.01115  -1.49507  -1.02699
N     2.38153  -2.50974  -1.47079
C     2.47618   1.00101  -0.32826
C     3.09729   0.89928   1.07814
C     2.08085   1.09831   1.92378
C     0.85446   1.33329   1.02155
O     1.45493   1.98580  -0.10282
C     0.51431  -0.02687   0.34424
Br   -0.45800  -1.36757   1.26987
H    -3.64487  -0.36521  -2.41797
H    -4.57225  -1.01790  -1.03862
H    -2.81531  -1.27848  -1.12462
H    -4.25117   1.11043  -0.15342
H     0.47271  -0.39582  -3.34071
H     3.12589   1.25520  -1.17025
H     4.13622   0.64538   1.28508
H     2.05771   1.05659   3.01183
H     0.00656   1.89372   1.42459
26

C    -3.62225  -0.55957  -1.33387
N    -3.44083   0.66026  -0.56269
C    -2.28763   1.33226  -0.43254
O    -2.14090   2.38137   0.20026
C    -1.11338   0.70077  -1.05730
N    -0.50594   0.58370  -2.08462
N     0.53101   0.43831  -2.74919
C     1.59297  -0.26956  -0.48580
C     2.01349  -1.49717  -1.02647
N     2.38124  -2.51084  -1.47463
C     2.47729   1.00048  -0.32639
C     3.10103   0.90541   1.08010
C     2.08533   1.10417   1.92643
C     0.85659   1.33071   1.02408
O     1.45307   1.98193  -0.10274
C     0.53275  -0.03790   0.36058
Br   -0.46035  -1.36835   1.27000
H    -3.64483  -0.36466  -2.41780
H    -4.57280  -1.01806  -1.03921
H    -2.81577  -1.27821  -1.12433
H    -4.25219   1.10859  -0.15025
H     0.46849  -0.39518  -3.34454
H     3.12545   1.25462  -1.17042
H     4.13756   0.64802   1.28539
H     2.05914   1.05885   3.01262
H     0.00611   1.89180   1.42473
26

C    -3.62403  -0.55884  -1.33347
N    -3.44574   0.66015  -0.56008
C    -2.29323   1.33541  -0.43609
O    -2.14301   2.38240   0.19999
C    -1.12948   0.70883  -1.07463
N    -0.49765   0.58334  -2.08189
N     0.52400   0.44318  -2.76833
C     1.60033  -0.27606  -0.47235
C     2.01584  -1.49927  -1.02595
N     2.38095  -2.51194  -1.47848
C     2.47840   0.99996  -0.32452
C     3.10478   0.91154   1.08206
C     2.08980   1.11002   1.92908
C     0.85872   1.32812   1.02660
O     1.45122   1.97806  -0.10267
C     0.55118  -0.04893   0.37692
Br   -0.46270  -1.36913   1.27012
H    -3.64480  -0.36412  -2.41764
H    -4.57334  -1.01822  -1.03980
H    -2.81623  -1.27795  -1.12403
H    -4.25322   1.10675  -0.14707
H     0.46426  -0.39453  -3.34837
H     3.12501   1.25403  -1.17059
H     4.13890   0.65066   1.28569
H     2.06057   1.06110   3.01340
H     0.00567   1.88987   1.42486
26

C    -3.62581  -0.55810  -1.33306
N    -3.45065   0.66005  -0.55747
C    -2.29883   1.33856  -0.43963
O    -2.14511   2.38343   0.19973
C    -1.14557   0.71689  -1.09196
N    -0.48935   0.58299  -2.07915
N     0.51700   0.44805  -2.78746
C     1.60768  -0.28256  -0.45891
C     2.01818  -1.50137  -1.02543
N     2.38065  -2.51304  -1.48232
C     2.47951   0.99943  -0.32264
C     3.10852   0.91767   1.08403
C     2.09427   1.11588   1.93173
C     0.86085   1.32554   1.02912
O     1.44936   1.97419  -0.10259
C     0.56962  -0.05996   0.39326
Br   -0.46505  -1.36991   1.27025
H    -3.64477  -0.36357  -2.41748
H    -4.57389  -1.01838  -1.04038
H    -2.81670  -1.27768  -1.12374
H    -4.25424   1.10490  -0.14390
H     0.46003  -0.39388  -3.35221
H     3.12457   1.25345  -1.17076
H     4.14023   0.65330   1.28600
H     2.06200   1.06336   3.01419
H     0.00522   1.88795   1.42500
26

C    -3.62759  -0.55736  -1.33265
N    -3.45556   0.65994  -0.55485
C    -2.30442   1.34171  -0.44317
O    -2.14721   2.38445   0.19946
C    -1.16167   0.72494  -1.10930
N    -0.48105   0.58263  -2.07641
N     0.50999   0.45293  -2.80659
C     1.61504  -0.28906  -0.44546
C     2.02052  -1.50347  -1.02490
N     2.38036  -2.51415  -1.48617
C     2.48062   0.99890  -0.32077
C     3.11226   0.92379   1.08599
C     2.09874   1.12173   1.93438
C     0.86299   1.32296   1.03164
O     1.44751   1.97032  -0.10252
C     0.58805  -0.07099   0.40960
Br   -0.46741  -1.37069   1.27038
H    -3.64474  -0.36302  -2.41732
H    -4.57443  -1.01854  -1.04097
H    -2.81716  -1.27741  -1.12344
H    -4.25526   1.10306  -0.14072
H     0.45581  -0.39323  -3.35604
H     3.12413   1.25287  -1.17093
H     4.14157   0.65594   1.28631
H     2.06343   1.06562   3.01497
H     0.00478   1.88603   1.42514
26

C    -3.62937  -0.55663  -1.33225
N    -3.46047   0.65983  -0.55224
C    -2.31002   1.34487  -0.44672
O    -2.14932   2.38548   0.19920
C    -1.17777   0.73300  -1.12663
N    -0.47275   0.58227  -2.07368
N     0.50299   0.45780  -2.82573
C     1.62239  -0.29557  -0.43201
C     2.02287  -1.50557  -1.02438
N     2.38007  -2.51525  -1.49002
C     2.48172   0.99837  -0.31890
C     3.11600   0.92992   1.08795
C     2.10322   1.12758   1.93704
C     0.86512   1.32038   1.03416
O     1.44565   1.96645  -0.10244
C     0.60649  -0.08203   0.42594
Br   -0.46976  -1.37147   1.27051
H    -3.64471  -0.36248  -2.41716
H    -4.57498  -1.01870  -1.04156
H    -2.81762  -1.27714  -1.12315
H    -4.25629   1.10122  -0.13755
H     0.45158  -0.39258  -3.35987
H     3.12369   1.25228  -1.17109
H     4.14290   0.65858   1.28662
H     2.06486   1.06787   3.01576
H     0.00433   1.88411   1.42527
26

C    -3.63115  -0.55589  -1.33184
N    -3.46537   0.65972  -0.54963
C    -2.31562   1.34802  -0.45026
O    -2.15142   2.38650   0.19894
C    -1.19387   0.74106  -1.14397
N    -0.46445   0.58192  -2.07094
N     0.49598   0.46268  -2.84486
C     1.62975  -0.30207  -0.41856
C     2.02521  -1.50767  -1.02386
N     2.37978  -2.51635  -1.49386
C     2.48283   0.99785  -0.31703
C     3.11975   0.93605   1.08991
C     2.10769   1.13344   1.93969
C     0.86725   1.31779   1.03668
O     1.44380   1.96259  -0.10237
C     0.62492  -0.09306   0.44228
Br   -0.47211  -1.37225   1.27064
H    -3.64468  -0.36193  -2.41700
H    -4.57552  -1.01886  -1.04214
H    -2.81808  -1.27687  -1.12285
H    -4.25731   1.09938  -0.13437
H     0.44735  -0.39193  -3.36371
H     3.12325   1.25170  -1.17126
H     4.14424   0.66121   1.28693
H     2.06629   1.07013   3.01654
H     0.00389   1.88219   1.42541
26

C    -3.63292  -0.55516  -1.33143
N    -3.47028   0.65962  -0.54702
C    -2.32122   1.35117  -0.45380
O    -2.15352   2.38753   0.19867
C    -1.20997   0.74911  -1.16130
N    -0.45615   0.58156  -2.06820
N     0.48898   0.46755  -2.86400
C     1.63711  -0.30857  -0.40511
C     2.02755  -1.50977  -1.02334
N     2.37948  -2.51745  -1.49771
C     2.48394   0.99732  -0.31516
C     3.12349   0.94218   1.09187
C     2.11216   1.13929   1.94234
C     0.86939   1.31521   1.03920
O     1.44194   1.95872  -0.10229
C     0.64336  -0.10409   0.45862
Br   -0.47446  -1.37303   1.27077
H    -3.64464  -0.36138  -2.41684
H    -4.57607  -1.01902  -1.04273
H    -2.81855  -1.27660  -1.12256
H    -4.25833   1.09754  -0.13120
H     0.44312  -0.39129  -3.36754
H     3.12281   1.25112  -1.17143
H     4.14557   0.66385   1.28723
H     2.06772   1.07239   3.01733
H     0.00344   1.88027   1.42554
26

C    -3.63470  -0.55442  -1.33102
N    -3.47519   0.65951  -0.54440
C    -2.32682   1.35432  -0.45735
O    -2.15563   2.38856   0.19841
C    -1.22607   0.75717  -1.17863
N    -0.44785   0.58120  -2.06546
N     0.48197   0.47242  -2.88313
C     1.64446  -0.31507  -0.39166
C     2.02990  -1.51187  -1.02282
N     2.37919  -2.51855  -1.50155
C     2.48505   0.99679  -0.31329
C     3.12723   0.94831   1.09384
C     2.11663   1.14514   1.94499
C     0.87152   1.31263   1.04172
O     1.44009   1.95485  -0.10222
C     0.66179  -0.11512   0.47496
Br   -0.47681  -1.37381   1.27089
H    -3.64461  -0.36084  -2.41668
H    -4.57661  -1.01918  -1.04332
H    -2.81901  -1.27633  -1.12226
H    -4.25936   1.09570  -0.12802
H     0.43890  -0.39064  -3.37137
H     3.12237   1.25053  -1.17160
H     4.14691   0.66649   1.28754
H     2.06915   1.07464   3.01812
H     0.00300   1.87834   1.42568
26

C    -3.63648  -0.55368  -1.33062
N    -3.48010   0.65940  -0.54179
C    -2.33242   1.35747  -0.46089
O    -2.15773   2.38958   0.19814
C    -1.24217   0.76522  -1.19597
N    -0.43956   0.58085  -2.06273
N     0.47497   0.47730  -2.90226
C     1.65182  -0.32157  -0.37821
C     2.03224  -1.51397  -1.02230
N     2.37890  -2.51965  -1.50540
C     2.48616   0.99626  -0.31142
C     3.13097   0.95444   1.09580
C     2.12111   1.15100   1.94764
C     0.87365   1.31005   1.04424
O     1.43823   1.95098  -0.10214
C     0.68023  -0.12615   0.49130
Br   -0.47917  -1.37459   1.27102
H    -3.64458  -0.36029  -2.41651
H    -4.57716  -1.01934  -1.04390
H    -2.81947  -1.27606  -1.12197
H    -4.26038   1.09386  -0.12485
H     0.43467  -0.38999  -3.37521
H     3.12193   1.24995  -1.17177
H     4.14824   0.66913   1.28785
H     2.07058   1.07690   3.01890
H     0.00255   1.87642   1.42582
26

C    -3.63826  -0.55295  -1.33021
N    -3.48501   0.65929  -0.53918
C    -2.33801   1.36062  -0.46443
O    -2.15983   2.39061   0.19788
C    -1.25827   0.77328  -1.21330
N    -0.43126   0.58049  -2.05999
N     0.46796   0.48217  -2.92140
C     1.65917  -0.32807  -0.36476
C     2.03458  -1.51607  -1.02177
N     2.37861  -2.52075  -1.50924
C     2.48727   0.99574  -0.30955
C     3.13472   0.96056   1.09776
C     2.12558   1.15685   1.95030
C     0.87578   1.30746   1.04676
O     1.43638   1.94711  -0.10207
C     0.69866  -0.13719   0.50765
Br   -0.48152  -1.37537   1.27115
H    -3.64455  -0.35974  -2.41635
H    -4.57770  -1.01950  -1.04449
H    -2.81994  -1.27580  -1.12167
H    -4.26140   1.09201  -0.12167
H     0.43044  -0.38934  -3.37904
H     3.12149   1.24936  -1.17194
H     4.14958   0.67177   1.28816
H     2.07201   1.07916   3.01969
H     0.00210   1.87450   1.42595
26

C    -3.63648  -0.55368  -1.33062
N    -3.48010   0.65940  -0.54179
C    -2.33242   1.35747  -0.46089
O    -2.15773   2.38958   0.19814
C    -1.24217   0.76522  -1.19597
N    -0.43956   0.58085  -2.06273
N     0.47497   0.47730  -2.90226
C     1.65182  -0.32157  -0.37821
C     2.03224  -1.51397  -1.02230
N     2.37890  -2.51965  -1.50540
C     2.48616   0.99626  -0.31142
C     3.13097   0.95444   1.09580
C     2.12111   1.15100   1.94764
C     0.87365   1.31005   1.04424
O     1.43823   1.95098  -0.10214
C     0.68023  -0.12615   0.49130
Br   -0.47917  -1.37459   1.27102
H    -3.64458  -0.36029  -2.41651
H    -4.57716  -1.01934  -1.04390
H    -2.81947  -1.27606  -1.12197
H    -4.26038   1.09386  -0.12485
H     0.43467  -0.38999  -3.37521
H     3.12193   1.24995  -1.17177
H     4.14824   0.66913   1.28785
H     2.07058   1.07690   3.01890
H     0.00255   1.87642   1.42582
26

C    -3.63470  -0.55442  -1.33102
N    -3.47519   0.65951  -0.54440
C    -2.32682   1.35432  -0.45735
O    -2.15563   2.38856   0.19841
C    -1.22607   0.75717  -1.17863
N    -0.44785   0.58120  -2.06546
N     0.48197   0.47242  -2.88313
C     1.64446  -0.31507  -0.39166
C     2.02990  -1.51187  -1.02282
N     2.37919  -2.51855  -1.50155
C     2.48505   0.99679  -0.31329
C     3.12723   0.94831   1.09384
C     2.11663   1.14514   1.94499
C     0.87152   1.31263   1.04172
O     1.44009   1.95485  -0.10222
C     0.66179  -0.11512   0.47496
Br   -0.47681  -1.37381   1.27089
H    -3.64461  -0.36084  -2.41668
H    -4.57661  -1.01918  -1.04332
H    -2.81901  -1.27633  -1.12226
H    -4.25936   1.09570  -0.12802
H     0.43890  -0.39064  -3.37137
H     3.12237   1.25053  -1.17160
H     4.14691   0.66649   1.28754
H     2.06915   1.07464   3.01812
H     0.00300   1.87834   1.42568
26

C    -3.63292  -0.55516  -1.33143
N    -3.47028   0.65962  -0.54702
C    -2.32122   1.35117  -0.45380
O    -2.15352   2.38753   0.19867
C    -1.20997   0.74911  -1.16130
N    -0.45615   0.58156  -2.06820
N     0.48898   0.46755  -2.86400
C     1.63711  -0.30857  -0.40511
C     2.02755  -1.50977  -1.02334
N     2.37948  -2.51745  -1.49771
C     2.48394   0.99732  -0.31516
C     3.12349   0.94218   1.09187
C     2.11216   1.13929   1.94234
C     0.86939   1.31521   1.03920
O     1.44194   1.95872  -0.10229
C     0.64336  -0.10409   0.45862
Br   -0.47446  -1.37303   1.27077
H    -3.64464  -0.36138  -2.41684
H    -4.57607  -1.01902  -1.04273
H    -2.81855  -1.27660  -1.12256
H    -4.25833   1.09754  -0.13120
H     0.44312  -0.39129  -3.36754
H     3.12281   1.25112  -1.17143
H     4.14557   0.66385   1.28723
H     2.06772   1.07239   3.01733
H     0.00344   1.88027   1.42554
26

C    -3.63115  -0.55589  -1.33184
N    -3.46537   0.65972  -0.54963
C    -2.31562   1.34802  -0.45026
O    -2.15142   2.38650   0.19894
C    -1.19387   0.74106  -1.14397
N    -0.46445   0.58192  -2.07094
N     0.49598   0.46268  -2.84486
C     1.62975  -0.30207  -0.41856
C     2.02521  -1.50767  -1.02386
N     2.37978  -2.51635  -1.49386
C     2.48283   0.99785  -0.31703
C     3.11975   0.93605   1.08991
C     2.10769   1.13344   1.93969
C     0.86725   1.31779   1.03668
O     1.44380   1.96259  -0.10237
C     0.62492  -0.09306   0.44228
Br   -0.47211  -1.37225   1.27064
H    -3.64468  -0.36193  -2.41700
H    -4.57552  -1.01886  -1.04214
H    -2.81808  -1.27687  -1.12285
H    -4.25731   1.09938  -0.13437
H     0.44735  -0.39193  -3.36371
H     3.12325   1.25170  -1.17126
H     4.14424   0.66121   1.28693
H     2.06629   1.07013   3.01654
H     0.00389   1.88219   1.42541
26

C    -3.62937  -0.55663  -1.33225
N    -3.46047   0.65983  -0.55224
C    -2.31002   1.34487  -0.44672
O    -2.14932   2.38548   0.19920
C    -1.17777   0.73300  -1.12663
N    -0.47275   0.58227  -2.07368
N     0.50299   0.45780  -2.82573
C     1.62239  -0.29557  -0.43201
C     2.02287  -1.50557  -1.02438
N     2.38007  -2.51525  -1.49002
C     2.48172   0.99837  -0.31890
C     3.11600   0.92992   1.08795
C     2.10322   1.12758   1.93704
C     0.86512   1.32038   1.03416
O     1.44565   1.96645  -0.10244
C     0.60649  -0.08203   0.42594
Br   -0.46976  -1.37147   1.27051
H    -3.64471  -0.36248  -2.41716
H    -4.57498  -1.01870  -1.04156
H    -2.81762  -1.27714  -1.12315
H    -4.25629   1.10122  -0.13755
H     0.45158  -0.39258  -3.35987
H     3.12369   1.25228  -1.17109
H     4.14290   0.65858   1.28662
H     2.06486   1.06787   3.01576
H     0.00433   1.88411   1.42527
26

C    -3.62759  -0.55736  -1.33265
N    -3.45556   0.65994  -0.55485
C    -2.30442   1.34171  -0.44317
O    -2.14721   2.38445   0.19946
C    -1.16167   0.72494  -1.10930
N    -0.48105   0.58263  -2.07641
N     0.50999   0.45293  -2.80659
C     1.61504  -0.28906  -0.44546
C     2.02052  -1.50347  -1.02490
N     2.38036  -2.51415  -1.48617
C     2.48062   0.99890  -0.32077
C     3.11226   0.92379   1.08599
C     2.09874   1.12173   1.93438
C     0.86299   1.32296   1.03164
O     1.44751   1.97032  -0.10252
C     0.58805  -0.07099   0.40960
Br   -0.46741  -1.37069   1.27038
H    -3.64474  -0.36302  -2.41732
H    -4.57443  -1.01854  -1.04097
H    -2.81716  -1.27741  -1.12344
H    -4.25526   1.10306  -0.14072
H     0.45581  -0.39323  -3.35604
H     3.12413   1.25287  -1.17093
H     4.14157   0.65594   1.28631
H     2.06343   1.06562   3.01497
H     0.00478   1.88603   1.42514
26

C    -3.62581  -0.55810  -1.33306
N    -3.45065   0.66005  -0.55747
C    -2.29883   1.33856  -0.43963
O    -2.14511   2.38343   0.19973
C    -1.14557   0.71689  -1.09196
N    -0.48935   0.58299  -2.07915
N     0.51700   0.44805  -2.78746
C     1.60768  -0.28256  -0.45891
C     2.01818  -1.50137  -1.02543
N     2.38065  -2.51304  -1.48232
C     2.47951   0.99943  -0.32264
C     3.10852   0.91767   1.08403
C     2.09427   1.11588   1.93173
C     0.86085   1.32554   1.02912
O     1.44936   1.97419  -0.10259
C     0.56962  -0.05996   0.39326
Br   -0.46505  -1.36991   1.27025
H    -3.64477  -0.36357  -2.41748
H    -4.57389  -1.01838  -1.04038
H    -2.81670  -1.27768  -1.12374
H    -4.25424   1.10490  -0.14390
H     0.46003  -0.39388  -3.35221
H     3.12457   1.25345  -1.17076
H     4.14023   0.65330   1.28600
H     2.06200   1.06336   3.01419
H     0.00522   1.88795   1.42500
26

C    -3.62403  -0.55884  -1.33347
N    -3.44574   0.66015  -0.56008
C    -2.29323   1.33541  -0.43609
O    -2.14301   2.38240   0.19999
C    -1.12948   0.70883  -1.07463
N    -0.49765   0.58334  -2.08189
N     0.52400   0.44318  -2.76833
C     1.60033  -0.27606  -0.47235
C     2.01584  -1.49927  -1.02595
N     2.38095  -2.51194  -1.47848
C     2.47840   0.99996  -0.32452
C     3.10478   0.91154   1.08206
C     2.08980   1.11002   1.92908
C     0.85872   1.32812   1.02660
O     1.45122   1.97806  -0.10267
C     0.55118  -0.04893   0.37692
Br   -0.46270  -1.36913   1.27012
H    -3.64480  -0.36412  -2.41764
H    -4.57334  -1.01822  -1.03980
H    -2.81623  -1.27795  -1.12403
H    -4.25322   1.10675  -0.14707
H     0.46426  -0.39453  -3.34837
H     3.12501   1.25403  -1.17059
H     4.13890   0.65066   1.28569
H     2.06057   1.06110   3.01340
H     0.00567   1.88987   1.42486
26

C    -3.62225  -0.55957  -1.33387
N    -3.44083   0.66026  -0.56269
C    -2.28763   1.33226  -0.43254
O    -2.14090   2.38137   0.20026
C    -1.11338   0.70077  -1.05730
N    -0.50594   0.58370  -2.08462
N     0.53101   0.43831  -2.74919
C     1.59297  -0.26956  -0.48580
C     2.01349  -1.49717  -1.02647
N     2.38124  -2.51084  -1.47463
C     2.47729   1.00048  -0.32639
C     3.10103   0.90541   1.08010
C     2.08533   1.10417   1.92643
C     0.85659   1.33071   1.02408
O     1.45307   1.98193  -0.10274
C     0.53275  -0.03790   0.36058
Br   -0.46035  -1.36835   1.27000
H    -3.64483  -0.36466  -2.41780
H    -4.57280  -1.01806  -1.03921
H    -2.81577  -1.27821  -1.12433
H    -4.25219   1.10859  -0.15025
H     0.46849  -0.39518  -3.34454
H     3.12545   1.25462  -1.17042
H     4.13756   0.64802   1.28539
H     2.05914   1.05885   3.01262
H     0.00611   1.89180   1.42473
26

C    -3.62048  -0.56031  -1.33428
N    -3.43592   0.66037  -0.56530
C    -2.28203   1.32911  -0.42900
O    -2.13880   2.38035   0.20052
C    -1.09728   0.69272  -1.03996
N    -0.51424   0.58405  -2.08736
N     0.53801   0.43343  -2.73006
C     1.58562  -0.26306  -0.49925
C     2.01115  -1.49507  -1.02699
N     2.38153  -2.50974  -1.47079
C     2.47618   1.00101  -0.32826
C     3.09729   0.89928   1.07814
C     2.08085   1.09831   1.92378
C     0.85446   1.33329   1.02155
O     1.45493   1.98580  -0.10282
C     0.51431  -0.02687   0.34424
Br   -0.45800  -1.36757   1.26987
H    -3.64487  -0.36521  -2.41797
H    -4.57225  -1.01790  -1.03862
H    -2.81531  -1.27848  -1.12462
H    -4.25117   1.11043  -0.15342
H     0.47271  -0.39582  -3.34071
H     3.12589   1.25520  -1.17025
H     4.13622   0.64538   1.28508
H     2.05771   1.05659   3.01183
H     0.00656   1.89372   1.42459
26

C    -3.61870  -0.56104  -1.33469
N    -3.43102   0.66048  -0.56792
C    -2.27643   1.32595  -0.42545
O    -2.13669   2.37932   0.20078
C    -1.08118   0.68466  -1.02263
N    -0.52254   0.58441  -2.09010
N     0.54502   0.42856  -2.71092
C     1.57826  -0.25656  -0.51270
C     2.00881  -1.49297  -1.02751
N     2.38182  -2.50864  -1.46694
C     2.47507   1.00154  -0.33013
C     3.09355   0.89315   1.07618
C     2.07638   1.09246   1.92113
C     0.85232   1.33587   1.01903
O     1.45678   1.98967  -0.10289
C     0.49588  -0.01583   0.32789
Br   -0.45565  -1.36679   1.26974
H    -3.64490  -0.36576  -2.41813
H    -4.57171  -1.01774  -1.03804
H    -2.81484  -1.27875  -1.12492
H    -4.25015   1.11227  -0.15659
H     0.47694  -0.39647  -3.33688
H     3.12634   1.25579  -1.17009
H     4.13489   0.64274   1.28477
H     2.05628   1.05433   3.01104
H     0.00700   1.89564   1.42445
26

C    -3.61692  -0.56178  -1.33510
N    -3.42611   0.66059  -0.57053
C    -2.27083   1.32280  -0.42191
O    -2.13459   2.37829   0.20105
C    -1.06508   0.67660  -1.00529
N    -0.53084   0.58477  -2.09283
N     0.55202   0.42369  -2.69179
C     1.57091  -0.25006  -0.52615
C     2.00646  -1.49087  -1.02803
N     2.38212  -2.50754  -1.46310
C     2.47396   1.00206  -0.33200
C     3.08981   0.88703   1.07422
C     2.07191   1.08661   1.91847
C     0.85019   1.33845   1.01651
O     1.45864   1.99353  -0.10296
C     0.47745  -0.00480   0.31155
Br   -0.45330  -1.36601   1.26961
H    -3.64493  -0.36630  -2.41829
H    -4.57116  -1.01758  -1.03745
H    -2.81438  -1.27902  -1.12521
H    -4.24912   1.11411  -0.15977
H     0.48117  -0.39712  -3.33304
H     3.12678   1.25637  -1.16992
H     4.13355   0.64010   1.28446
H     2.05485   1.05208   3.01026
H     0.00745   1.89756   1.42432
26

C    -3.61514  -0.56252  -1.33550
N    -3.42120   0.66069  -0.57314
C    -2.26524   1.31965  -0.41837
O    -2.13249   2.37727   0.20131
C    -1.04898   0.66855  -0.98796
N    -0.53914   0.58512  -2.09557
N     0.55903   0.41881  -2.67266
C     1.56355  -0.24356  -0.53960
C     2.00412  -1.48877  -1.02856
N     2.38241  -2.50643  -1.45925
C     2.47286   1.00259  -0.33387
C     3.08606   0.88090   1.07225
C     2.06744   1.08075   1.91582
C     0.84806   1.34104   1.01399
O     1.46049   1.99740  -0.10304
C     0.45901   0.00623   0.29521
Br   -0.45094  -1.36523   1.26948
H    -3.64496  -0.36685  -2.41845
H    -4.57062  -1.01742  -1.03686
H    -2.81392  -1.27929  -1.12550
H    -4.24810   1.11595  -0.16294
H     0.48539  -0.39777  -3.32921
H     3.12722   1.25695  -1.16975
H     4.13222   0.63746   1.28415
H     2.05342   1.04982   3.00947
H     0.00790   1.89948   1.42418
26

C    -3.61336  -0.56325  -1.33591
N    -3.41629   0.66080  -0.57575
C    -2.25964   1.31650  -0.41482
O    -2.13038   2.37624   0.20158
C    -1.03288   0.66049  -0.97063
N    -0.54744   0.58548  -2.09831
N     0.56603   0.41394  -2.65352
C     1.55620  -0.23705  -0.55305
C     2.00178  -1.48667  -1.02908
N     2.38270  -2.50533  -1.45540
C     2.47175   1.00312  -0.33574
C     3.08232   0.87477   1.07029
C     2.06296   1.07490   1.91317
C     0.84593   1.34362   1.01147
O     1.46235   2.00127  -0.10311
C     0.44058   0.01726   0.27887
Br   -0.44859  -1.36445   1.26935
H    -3.64499  -0.36740  -2.41861
H    -4.57008  -1.01726  -1.03628
H    -2.81345  -1.27956  -1.12580
H    -4.24708   1.11779  -0.16612
H     0.48962  -0.39842  -3.32538
H     3.12766   1.25754  -1.16958
H     4.13088   0.63482   1.28385
H     2.05199   1.04756   3.00869
H     0.00834   1.90141   1.42404
26

C    -3.61158  -0.56399  -1.33632
N    -3.41138   0.66091  -0.57837
C    -2.25404   1.31335  -0.41128
O    -2.12828   2.37521   0.20184
C    -1.01678   0.65243  -0.95329
N    -0.55574   0.58584  -2.10104
N     0.57304   0.40907  -2.63439
C     1.54884  -0.23055  -0.56649
C     1.99943  -1.48457  -1.02960
N     2.38299  -2.50423  -1.45156
C     2.47064   1.00365  -0.33761
C     3.07858   0.86864   1.06833
C     2.05849   1.06905   1.91052
C     0.84379   1.34620   1.00895
O     1.46421   2.00514  -0.10319
C     0.42214   0.02829   0.26253
Br   -0.44624  -1.36367   1.26922
H    -3.64502  -0.36794  -2.41877
H    -4.56953  -1.01710  -1.03569
H    -2.81299  -1.27983  -1.12609
H    -4.24605   1.11964  -0.16929
H     0.49385  -0.39907  -3.32154
H     3.12810   1.25812  -1.16941
H     4.12955   0.63218   1.28354
H     2.05056   1.04531   3.00790
H     0.00879   1.90333   1.42391
26

C    -3.60980  -0.56472  -1.33672
N    -3.40648   0.66102  -0.58098
C    -2.24844   1.31019  -0.40774
O    -2.12618   2.37419   0.20210
C    -1.00068   0.64438  -0.93596
N    -0.56403   0.58619  -2.10378
N     0.58004   0.40419  -2.61525
C     1.54149  -0.22405  -0.57994
C     1.99709  -1.48247  -1.03012
N     2.38329  -2.50313  -1.44771
C     2.46953   1.00417  -0.33948
C     3.07484   0.86251   1.06637
C     2.05402   1.06319   1.90787
C     0.84166   1.34878   1.00643
O     1.46606   2.00901  -0.10326
C     0.40371   0.03932   0.24619
Br   -0.44389  -1.36289   1.26910
H    -3.64506  -0.36849  -2.41893
H    -4.56899  -1.01694  -1.03511
H    -2.81253  -1.28010  -1.12639
H    -4.24503   1.12148  -0.17247
H     0.49808  -0.39972  -3.31771
H     3.12854   1.25870  -1.16925
H     4.12821   0.62954   1.28323
H     2.04913   1.04305   3.00712
H     0.00923   1.90525   1.42377
26

C    -3.60803  -0.56546  -1.33713
N    -3.40157   0.66113  -0.58359
C    -2.24284   1.30704  -0.40419
O    -2.12407   2.37316   0.20237
C    -0.98458   0.63632  -0.91863
N    -0.57233   0.58655  -2.10652
N     0.58705   0.39932  -2.59612
C     1.53413  -0.21755  -0.59339
C     1.99475  -1.48037  -1.03064
N     2.38358  -2.50203  -1.44387
C     2.46842   1.00470  -0.34136
C     3.07109   0.85639   1.06440
C     2.04955   1.05734   1.90522
C     0.83953   1.35137   1.00391
O     1.46792   2.01288  -0.10334
C     0.38527   0.05036   0.22985
Br   -0.44154  -1.36211   1.26897
H    -3.64509  -0.36904  -2.41910
H    -4.56844  -1.01678  -1.03452
H    -2.81207  -1.28037  -1.12668
H    -4.24401   1.12332  -0.17564
H     0.50230  -0.40036  -3.31388
H     3.12898   1.25929  -1.16908
H     4.12688   0.62691   1.28292
H     2.04770   1.04079   3.00633
H     0.00968   1.90717   1.42363
26

C    -3.60625  -0.56619  -1.33754
N    -3.39666   0.66123  -0.58620
C    -2.23724   1.30389  -0.40065
O    -2.12197   2.37214   0.20263
C    -0.96848   0.62826  -0.90129
N    -0.58063   0.58691  -2.10925
N     0.59405   0.39444  -2.57699
C     1.52678  -0.21105  -0.60684
C     1.99240  -1.47827  -1.03117
N     2.38387  -2.50093  -1.44002
C     2.46731   1.00523  -0.34323
C     3.06735   0.85026   1.06244
C     2.04507   1.05148   1.90256
C     0.83740   1.35395   1.00139
O     1.46977   2.01674  -0.10341
C     0.36684   0.06139   0.21351
Br   -0.43919  -1.36133   1.26884
H    -3.64512  -0.36958  -2.41926
H    -4.56790  -1.01662  -1.03393
H    -2.81160  -1.28063  -1.12698
H    -4.24298   1.12516  -0.17882
H     0.50653  -0.40101  -3.31004
H     3.12942   1.25987  -1.16891
H     4.12554   0.62427   1.28261
H     2.04627   1.03853   3.00554
H     0.01012   1.90909   1.42350
26

C    -3.60447  -0.56693  -1.33795
N    -3.39175   0.66134  -0.58882
C    -2.23164   1.30074  -0.39711
O    -2.11987   2.37111   0.20289
C    -0.95239   0.62021  -0.88396
N    -0.58893   0.58726  -2.11199
N     0.60105   0.38957  -2.55785
C     1.51942  -0.20455  -0.62029
C     1.99006  -1.47617  -1.03169
N     2.38417  -2.49983  -1.43618
C     2.46620   1.00575  -0.34510
C     3.06361   0.84413   1.06048
C     2.04060   1.04563   1.89991
C     0.83526   1.35653   0.99887
O     1.47163   2.02061  -0.10349
C     0.34840   0.07242   0.19717
Br   -0.43683  -1.36055   1.26871
H    -3.64515  -0.37013  -2.41942
H    -4.56735  -1.01646  -1.03335
H    -2.81114  -1.28090  -1.12727
H    -4.24196   1.12700  -0.18199
H     0.51076  -0.40166  -3.30621
H     3.12986   1.26046  -1.16874
H     4.12421   0.62163   1.28231
H     2.04484   1.03628   3.00476
H     0.01057   1.91101   1.42336
