23

C     2.31972  -0.27761   1.50186
C     1.50383   0.01013   0.24013
C     2.30857   0.44800  -0.89350
N     2.91567   0.90477  -1.77845
C     0.20160   1.57252   0.55538
C    -1.12153   0.99255   0.40587
C    -1.97461   1.47066  -0.77954
C    -1.94976   0.80311   1.68570
C    -0.63416  -0.80010  -0.08950
C    -1.56452  -1.86691  -0.42965
N    -2.44584  -2.58833  -0.66944
N     0.63641  -1.07683  -0.12999
H     2.89026   0.62154   1.74933
H     1.62060  -0.51377   2.31392
H     3.06791  -1.13053   1.45372
H     0.54470   2.29867  -0.22574
H     0.55751   1.82904   1.57580
H    -2.71993   0.68994  -1.00101
H    -2.56537   2.41370  -0.60933
H    -1.35485   1.63523  -1.66489
H    -1.30611   0.50773   2.51937
H    -2.68784   0.01081   1.49917
H    -2.53875   1.69984   2.02384
23

C     2.32285  -0.28090   1.50333
C     1.51863  -0.00904   0.23527
C     2.31183   0.44394  -0.89523
N     2.91544   0.90677  -1.77909
C     0.19011   1.58976   0.55910
C    -1.12754   1.01655   0.41213
C    -1.97671   1.47260  -0.77948
C    -1.95139   0.80500   1.68652
C    -0.62987  -0.81889  -0.09438
C    -1.56341  -1.87515  -0.43195
N    -2.44993  -2.59107  -0.67040
N     0.63600  -1.06640  -0.12706
H     2.88944   0.62185   1.74862
H     1.62006  -0.51380   2.31322
H     3.07005  -1.13046   1.45784
H     0.54502   2.29829  -0.22623
H     0.55833   1.82797   1.57532
H    -2.71742   0.68766  -1.00032
H    -2.56960   2.41233  -0.61245
H    -1.35477   1.63623  -1.66432
H    -1.30586   0.50896   2.51929
H    -2.68522   0.00926   1.49737
H    -2.54277   1.69711   2.02590
23

C     2.32597  -0.28419   1.50479
C     1.53344  -0.02822   0.23041
C     2.31509   0.43988  -0.89696
N     2.91521   0.90877  -1.77972
C     0.17861   1.60700   0.56282
C    -1.13354   1.04054   0.41839
C    -1.97881   1.47454  -0.77942
C    -1.95302   0.80689   1.68733
C    -0.62558  -0.83768  -0.09926
C    -1.56230  -1.88339  -0.43426
N    -2.45401  -2.59382  -0.67136
N     0.63559  -1.05598  -0.12413
H     2.88863   0.62216   1.74791
H     1.61952  -0.51383   2.31252
H     3.07219  -1.13038   1.46196
H     0.54534   2.29791  -0.22673
H     0.55914   1.82690   1.57484
H    -2.71491   0.68538  -0.99963
H    -2.57384   2.41096  -0.61557
H    -1.35470   1.63723  -1.66374
H    -1.30561   0.51019   2.51922
H    -2.68260   0.00770   1.49556
H    -2.54679   1.69437   2.02797
23

C     2.32910  -0.28747   1.50626
C     1.54824  -0.04739   0.22555
C     2.31834   0.43582  -0.89869
N     2.91498   0.91076  -1.78036
C     0.16712   1.62424   0.56654
C    -1.13955   1.06453   0.42466
C    -1.98090   1.47648  -0.77936
C    -1.95466   0.80877   1.68815
C    -0.62128  -0.85647  -0.10415
C    -1.56120  -1.89163  -0.43656
N    -2.45809  -2.59656  -0.67233
N     0.63518  -1.04555  -0.12120
H     2.88782   0.62247   1.74720
H     1.61899  -0.51386   2.31182
H     3.07433  -1.13031   1.46608
H     0.54566   2.29754  -0.22722
H     0.55996   1.82583   1.57435
H    -2.71241   0.68310  -0.99893
H    -2.57807   2.40959  -0.61869
H    -1.35463   1.63823  -1.66317
H    -1.30536   0.51142   2.51914
H    -2.67998   0.00615   1.49376
H    -2.55081   1.69164   2.03003
23

C     2.33223  -0.29076   1.50773
C     1.56304  -0.06656   0.22068
C     2.32160   0.43176  -0.90043
N     2.91475   0.91276  -1.78099
C     0.15563   1.64148   0.57026
C    -1.14556   1.08853   0.43092
C    -1.98300   1.47842  -0.77931
C    -1.95629   0.81066   1.68896
C    -0.61699  -0.87525  -0.10903
C    -1.56009  -1.89987  -0.43886
N    -2.46217  -2.59930  -0.67329
N     0.63477  -1.03512  -0.11827
H     2.88700   0.62279   1.74648
H     1.61845  -0.51389   2.31112
H     3.07647  -1.13024   1.47019
H     0.54598   2.29716  -0.22772
H     0.56077   1.82476   1.57387
H    -2.70990   0.68082  -0.99824
H    -2.58230   2.40823  -0.62181
H    -1.35455   1.63923  -1.66259
H    -1.30511   0.51265   2.51907
H    -2.67736   0.00459   1.49195
H    -2.55483   1.68890   2.03209
23

C     2.33535  -0.29404   1.50919
C     1.57784  -0.08573   0.21582
C     2.32485   0.42770  -0.90216
N     2.91452   0.91476  -1.78163
C     0.14414   1.65872   0.57398
C    -1.15156   1.11252   0.43718
C    -1.98510   1.48036  -0.77925
C    -1.95792   0.81255   1.68978
C    -0.61270  -0.89404  -0.11392
C    -1.55898  -1.90810  -0.44117
N    -2.46625  -2.60205  -0.67425
N     0.63437  -1.02469  -0.11534
H     2.88619   0.62310   1.74577
H     1.61792  -0.51392   2.31042
H     3.07861  -1.13016   1.47431
H     0.54631   2.29678  -0.22821
H     0.56159   1.82368   1.57339
H    -2.70739   0.67854  -0.99755
H    -2.58653   2.40686  -0.62494
H    -1.35448   1.64022  -1.66201
H    -1.30486   0.51388   2.51899
H    -2.67474   0.00304   1.49014
H    -2.55886   1.68617   2.03416
23

C     2.33848  -0.29733   1.51066
C     1.59265  -0.10490   0.21096
C     2.32811   0.42364  -0.90389
N     2.91429   0.91675  -1.78226
C     0.13264   1.67596   0.57771
C    -1.15757   1.13652   0.44344
C    -1.98720   1.48231  -0.77919
C    -1.95956   0.81443   1.69060
C    -0.60840  -0.91283  -0.11880
C    -1.55788  -1.91634  -0.44347
N    -2.47033  -2.60479  -0.67521
N     0.63396  -1.01427  -0.11241
H     2.88537   0.62341   1.74506
H     1.61738  -0.51396   2.30971
H     3.08075  -1.13009   1.47843
H     0.54663   2.29640  -0.22871
H     0.56240   1.82261   1.57291
H    -2.70489   0.67626  -0.99685
H    -2.59077   2.40549  -0.62806
H    -1.35440   1.64122  -1.66144
H    -1.30461   0.51511   2.51892
H    -2.67211   0.00148   1.48834
H    -2.56288   1.68344   2.03622
23

C     2.34160  -0.30061   1.51213
C     1.60745  -0.12408   0.20610
C     2.33137   0.41958  -0.90562
N     2.91405   0.91875  -1.78290
C     0.12115   1.69320   0.58143
C    -1.16357   1.16051   0.44970
C    -1.98930   1.48425  -0.77913
C    -1.96119   0.81632   1.69141
C    -0.60411  -0.93161  -0.12369
C    -1.55677  -1.92458  -0.44578
N    -2.47441  -2.60754  -0.67618
N     0.63355  -1.00384  -0.10947
H     2.88456   0.62372   1.74435
H     1.61684  -0.51399   2.30901
H     3.08289  -1.13002   1.48255
H     0.54695   2.29602  -0.22920
H     0.56321   1.82154   1.57243
H    -2.70238   0.67398  -0.99616
H    -2.59500   2.40412  -0.63118
H    -1.35433   1.64222  -1.66086
H    -1.30436   0.51634   2.51884
H    -2.66949  -0.00008   1.48653
H    -2.56690   1.68070   2.03828
23

C     2.34473  -0.30390   1.51359
C     1.62225  -0.14325   0.20124
C     2.33462   0.41552  -0.90735
N     2.91382   0.92075  -1.78353
C     0.10966   1.71044   0.58515
C    -1.16958   1.18451   0.45597
C    -1.99140   1.48619  -0.77907
C    -1.96283   0.81821   1.69223
C    -0.59982  -0.95040  -0.12857
C    -1.55566  -1.93282  -0.44808
N    -2.47849  -2.61028  -0.67714
N     0.63314  -0.99341  -0.10654
H     2.88375   0.62404   1.74364
H     1.61631  -0.51402   2.30831
H     3.08503  -1.12994   1.48667
H     0.54727   2.29564  -0.22970
H     0.56403   1.82047   1.57195
H    -2.69988   0.67170  -0.99547
H    -2.59923   2.40275  -0.63430
H    -1.35426   1.64322  -1.66029
H    -1.30411   0.51757   2.51877
H    -2.66687  -0.00163   1.48473
H    -2.57092   1.67797   2.04035
23

C     2.34785  -0.30719   1.51506
C     1.63705  -0.16242   0.19638
C     2.33788   0.41145  -0.90908
N     2.91359   0.92274  -1.78416
C     0.09817   1.72768   0.58887
C    -1.17559   1.20850   0.46223
C    -1.99350   1.48813  -0.77902
C    -1.96446   0.82009   1.69305
C    -0.59553  -0.96919  -0.13346
C    -1.55456  -1.94106  -0.45039
N    -2.48258  -2.61303  -0.67810
N     0.63273  -0.98299  -0.10361
H     2.88293   0.62435   1.74293
H     1.61577  -0.51405   2.30761
H     3.08717  -1.12987   1.49078
H     0.54759   2.29526  -0.23019
H     0.56484   1.81940   1.57147
H    -2.69737   0.66942  -0.99478
H    -2.60347   2.40138  -0.63743
H    -1.35418   1.64422  -1.65971
H    -1.30386   0.51880   2.51869
H    -2.66425  -0.00319   1.48292
H    -2.57494   1.67523   2.04241
23

C     2.35098  -0.31047   1.51653
C     1.65185  -0.18159   0.19152
C     2.34113   0.40739  -0.91081
N     2.91336   0.92474  -1.78480
C     0.08668   1.74492   0.59259
C    -1.18159   1.23250   0.46849
C    -1.99559   1.49007  -0.77896
C    -1.96609   0.82198   1.69386
C    -0.59123  -0.98798  -0.13834
C    -1.55345  -1.94929  -0.45269
N    -2.48666  -2.61577  -0.67907
N     0.63232  -0.97256  -0.10068
H     2.88212   0.62466   1.74221
H     1.61523  -0.51408   2.30691
H     3.08931  -1.12980   1.49490
H     0.54791   2.29488  -0.23069
H     0.56566   1.81832   1.57098
H    -2.69486   0.66714  -0.99408
H    -2.60770   2.40001  -0.64055
H    -1.35411   1.64521  -1.65914
H    -1.30361   0.52003   2.51862
H    -2.66163  -0.00474   1.48112
H    -2.57896   1.67250   2.04447
23

C     2.35410  -0.31376   1.51799
C     1.66666  -0.20076   0.18666
C     2.34439   0.40333  -0.91254
N     2.91313   0.92674  -1.78543
C     0.07518   1.76216   0.59631
C    -1.18760   1.25649   0.47475
C    -1.99769   1.49201  -0.77890
C    -1.96773   0.82387   1.69468
C    -0.58694  -1.00676  -0.14323
C    -1.55234  -1.95753  -0.45500
N    -2.49074  -2.61851  -0.68003
N     0.63191  -0.96213  -0.09775
H     2.88131   0.62497   1.74150
H     1.61470  -0.51411   2.30621
H     3.09145  -1.12972   1.49902
H     0.54823   2.29451  -0.23118
H     0.56647   1.81725   1.57050
H    -2.69236   0.66487  -0.99339
H    -2.61193   2.39864  -0.64367
H    -1.35403   1.64621  -1.65856
H    -1.30336   0.52126   2.51854
H    -2.65901  -0.00630   1.47931
H    -2.58298   1.66976   2.04654
23

C     2.35723  -0.31704   1.51946
C     1.68146  -0.21994   0.18180
C     2.34765   0.39927  -0.91427
N     2.91290   0.92873  -1.78607
C     0.06369   1.77940   0.60003
C    -1.19360   1.28048   0.48102
C    -1.99979   1.49395  -0.77884
C    -1.96936   0.82576   1.69550
C    -0.58265  -1.02555  -0.14811
C    -1.55124  -1.96577  -0.45730
N    -2.49482  -2.62126  -0.68099
N     0.63150  -0.95170  -0.09482
H     2.88049   0.62529   1.74079
H     1.61416  -0.51414   2.30551
H     3.09359  -1.12965   1.50314
H     0.54856   2.29413  -0.23168
H     0.56729   1.81618   1.57002
H    -2.68985   0.66259  -0.99270
H    -2.61617   2.39727  -0.64679
H    -1.35396   1.64721  -1.65799
H    -1.30311   0.52250   2.51847
H    -2.65639  -0.00785   1.47751
H    -2.58700   1.66703   2.04860
23

C     2.36035  -0.32033   1.52093
C     1.69626  -0.23911   0.17693
C     2.35090   0.39521  -0.91600
N     2.91267   0.93073  -1.78670
C     0.05220   1.79664   0.60376
C    -1.19961   1.30448   0.48728
C    -2.00189   1.49589  -0.77878
C    -1.97099   0.82764   1.69631
C    -0.57836  -1.04434  -0.15300
C    -1.55013  -1.97401  -0.45961
N    -2.49890  -2.62400  -0.68196
N     0.63109  -0.94128  -0.09189
H     2.87968   0.62560   1.74008
H     1.61362  -0.51418   2.30480
H     3.09573  -1.12957   1.50726
H     0.54888   2.29375  -0.23217
H     0.56810   1.81511   1.56954
H    -2.68735   0.66031  -0.99200
H    -2.62040   2.39591  -0.64991
H    -1.35389   1.64821  -1.65741
H    -1.30286   0.52373   2.51839
H    -2.65376  -0.00941   1.47570
H    -2.59102   1.66429   2.05067
23

C     2.36348  -0.32361   1.52239
C     1.71106  -0.25828   0.17207
C     2.35416   0.39115  -0.91774
N     2.91244   0.93273  -1.78734
C     0.04071   1.81388   0.60748
C    -1.20562   1.32847   0.49354
C    -2.00399   1.49783  -0.77873
C    -1.97263   0.82953   1.69713
C    -0.57406  -1.06312  -0.15788
C    -1.54902  -1.98225  -0.46191
N    -2.50298  -2.62675  -0.68292
N     0.63068  -0.93085  -0.08896
H     2.87886   0.62591   1.73937
H     1.61309  -0.51421   2.30410
H     3.09787  -1.12950   1.51137
H     0.54920   2.29337  -0.23267
H     0.56891   1.81404   1.56906
H    -2.68484   0.65803  -0.99131
H    -2.62463   2.39454  -0.65304
H    -1.35381   1.64921  -1.65684
H    -1.30261   0.52496   2.51832
H    -2.65114  -0.01096   1.47390
H    -2.59504   1.66156   2.05273
23

C     2.36661  -0.32690   1.52386
C     1.72587  -0.27745   0.16721
C     2.35741   0.38709  -0.91947
N     2.91220   0.93473  -1.78797
C     0.02921   1.83111   0.61120
C    -1.21162   1.35247   0.49980
C    -2.00609   1.49978  -0.77867
C    -1.97426   0.83142   1.69794
C    -0.56977  -1.08191  -0.16276
C    -1.54792  -1.99048  -0.46422
N    -2.50706  -2.62949  -0.68388
N     0.63027  -0.92042  -0.08603
H     2.87805   0.62622   1.73866
H     1.61255  -0.51424   2.30340
H     3.10001  -1.12943   1.51549
H     0.54952   2.29299  -0.23316
H     0.56973   1.81297   1.56858
H    -2.68233   0.65575  -0.99062
H    -2.62886   2.39317  -0.65616
H    -1.35374   1.65021  -1.65626
H    -1.30236   0.52619   2.51824
H    -2.64852  -0.01252   1.47209
H    -2.59906   1.65883   2.05479
23

C     2.36973  -0.33019   1.52533
C     1.74067  -0.29662   0.16235
C     2.36067   0.38303  -0.92120
N     2.91197   0.93672  -1.78861
C     0.01772   1.84835   0.61492
C    -1.21763   1.37646   0.50607
C    -2.00819   1.50172  -0.77861
C    -1.97589   0.83330   1.69876
C    -0.56548  -1.10070  -0.16765
C    -1.54681  -1.99872  -0.46652
N    -2.51115  -2.63224  -0.68484
N     0.62987  -0.91000  -0.08310
H     2.87724   0.62654   1.73795
H     1.61201  -0.51427   2.30270
H     3.10215  -1.12935   1.51961
H     0.54984   2.29261  -0.23366
H     0.57054   1.81189   1.56810
H    -2.67983   0.65347  -0.98992
H    -2.63310   2.39180  -0.65928
H    -1.35366   1.65120  -1.65568
H    -1.30211   0.52742   2.51817
H    -2.64590  -0.01407   1.47029
H    -2.60308   1.65609   2.05686
23

C     2.37286  -0.33347   1.52679
C     1.75547  -0.31580   0.15749
C     2.36393   0.37897  -0.92293
N     2.91174   0.93872  -1.78924
C     0.00623   1.86559   0.61864
C    -1.22363   1.40046   0.51233
C    -2.01028   1.50366  -0.77855
C    -1.97753   0.83519   1.69958
C    -0.56119  -1.11948  -0.17253
C    -1.54570  -2.00696  -0.46883
N    -2.51523  -2.63498  -0.68581
N     0.62946  -0.89957  -0.08017
H     2.87642   0.62685   1.73723
H     1.61148  -0.51430   2.30200
H     3.10429  -1.12928   1.52373
H     0.55016   2.29223  -0.23415
H     0.57136   1.81082   1.56762
H    -2.67732   0.65119  -0.98923
H    -2.63733   2.39043  -0.66240
H    -1.35359   1.65220  -1.65511
H    -1.30186   0.52865   2.51809
H    -2.64328  -0.01563   1.46848
H    -2.60710   1.65336   2.05892
23

C     2.37598  -0.33676   1.52826
C     1.77027  -0.33497   0.15263
C     2.36718   0.37491  -0.92466
N     2.91151   0.94072  -1.78988
C    -0.00526   1.88283   0.62236
C    -1.22964   1.42445   0.51859
C    -2.01238   1.50560  -0.77849
C    -1.97916   0.83708   1.70039
C    -0.55689  -1.13827  -0.17742
C    -1.54459  -2.01520  -0.47113
N    -2.51931  -2.63772  -0.68677
N     0.62905  -0.88914  -0.07724
H     2.87561   0.62716   1.73652
H     1.61094  -0.51433   2.30130
H     3.10643  -1.12921   1.52785
H     0.55049   2.29186  -0.23465
H     0.57217   1.80975   1.56713
H    -2.67481   0.64891  -0.98854
H    -2.64156   2.38906  -0.66552
H    -1.35352   1.65320  -1.65453
H    -1.30161   0.52988   2.51802
H    -2.64066  -0.01718   1.46667
H    -2.61112   1.65062   2.06098
23

C     2.37911  -0.34004   1.52973
C     1.78507  -0.35414   0.14777
C     2.37044   0.37085  -0.92639
N     2.91128   0.94271  -1.79051
C    -0.01675   1.90007   0.62608
C    -1.23564   1.44845   0.52485
C    -2.01448   1.50754  -0.77844
C    -1.98080   0.83897   1.70121
C    -0.55260  -1.15706  -0.18230
C    -1.54349  -2.02344  -0.47343
N    -2.52339  -2.64047  -0.68773
N     0.62864  -0.87872  -0.07430
H     2.87480   0.62747   1.73581
H     1.61041  -0.51436   2.30060
H     3.10857  -1.12913   1.53197
H     0.55081   2.29148  -0.23514
H     0.57299   1.80868   1.56665
H    -2.67231   0.64663  -0.98784
H    -2.64580   2.38769  -0.66865
H    -1.35344   1.65420  -1.65396
H    -1.30136   0.53111   2.51794
H    -2.63804  -0.01874   1.46487
H    -2.61514   1.64789   2.06305
23

C     2.38223  -0.34333   1.53119
C     1.79988  -0.37331   0.14291
C     2.37369   0.36678  -0.92812
N     2.91105   0.94471  -1.79115
C    -0.02825   1.91731   0.62981
C    -1.24165   1.47244   0.53111
C    -2.01658   1.50948  -0.77838
C    -1.98243   0.84085   1.70203
C    -0.54831  -1.17585  -0.18719
C    -1.54238  -2.03167  -0.47574
N    -2.52747  -2.64321  -0.68870
N     0.62823  -0.86829  -0.07137
H     2.87398   0.62779   1.73510
H     1.60987  -0.51440   2.29989
H     3.11071  -1.12906   1.53608
H     0.55113   2.29110  -0.23563
H     0.57380   1.80761   1.56617
H    -2.66980   0.64435  -0.98715
H    -2.65003   2.38632  -0.67177
H    -1.35337   1.65520  -1.65338
H    -1.30112   0.53234   2.51787
H    -2.63541  -0.02029   1.46306
H    -2.61917   1.64515   2.06511
23

C     2.37911  -0.34004   1.52973
C     1.78507  -0.35414   0.14777
C     2.37044   0.37085  -0.92639
N     2.91128   0.94271  -1.79051
C    -0.01675   1.90007   0.62608
C    -1.23564   1.44845   0.52485
C    -2.01448   1.50754  -0.77844
C    -1.98080   0.83897   1.70121
C    -0.55260  -1.15706  -0.18230
C    -1.54349  -2.02344  -0.47343
N    -2.52339  -2.64047  -0.68773
N     0.62864  -0.87872  -0.07430
H     2.87480   0.62747   1.73581
H     1.61041  -0.51436   2.30060
H     3.10857  -1.12913   1.53197
H     0.55081   2.29148  -0.23514
H     0.57299   1.80868   1.56665
H    -2.67231   0.64663  -0.98784
H    -2.64580   2.38769  -0.66865
H    -1.35344   1.65420  -1.65396
H    -1.30136   0.53111   2.51794
H    -2.63804  -0.01874   1.46487
H    -2.61514   1.64789   2.06305
23

C     2.37598  -0.33676   1.52826
C     1.77027  -0.33497   0.15263
C     2.36718   0.37491  -0.92466
N     2.91151   0.94072  -1.78988
C    -0.00526   1.88283   0.62236
C    -1.22964   1.42445   0.51859
C    -2.01238   1.50560  -0.77849
C    -1.97916   0.83708   1.70039
C    -0.55689  -1.13827  -0.17742
C    -1.54459  -2.01520  -0.47113
N    -2.51931  -2.63772  -0.68677
N     0.62905  -0.88914  -0.07724
H     2.87561   0.62716   1.73652
H     1.61094  -0.51433   2.30130
H     3.10643  -1.12921   1.52785
H     0.55049   2.29186  -0.23465
H     0.57217   1.80975   1.56713
H    -2.67481   0.64891  -0.98854
H    -2.64156   2.38906  -0.66552
H    -1.35352   1.65320  -1.65453
H    -1.30161   0.52988   2.51802
H    -2.64066  -0.01718   1.46667
H    -2.61112   1.65062   2.06098
23

C     2.37286  -0.33347   1.52679
C     1.75547  -0.31580   0.15749
C     2.36393   0.37897  -0.92293
N     2.91174   0.93872  -1.78924
C     0.00623   1.86559   0.61864
C    -1.22363   1.40046   0.51233
C    -2.01028   1.50366  -0.77855
C    -1.97753   0.83519   1.69958
C    -0.56119  -1.11948  -0.17253
C    -1.54570  -2.00696  -0.46883
N    -2.51523  -2.63498  -0.68581
N     0.62946  -0.89957  -0.08017
H     2.87642   0.62685   1.73723
H     1.61148  -0.51430   2.30200
H     3.10429  -1.12928   1.52373
H     0.55016   2.29223  -0.23415
H     0.57136   1.81082   1.56762
H    -2.67732   0.65119  -0.98923
H    -2.63733   2.39043  -0.66240
H    -1.35359   1.65220  -1.65511
H    -1.30186   0.52865   2.51809
H    -2.64328  -0.01563   1.46848
H    -2.60710   1.65336   2.05892
23

C     2.36973  -0.33019   1.52533
C     1.74067  -0.29662   0.16235
C     2.36067   0.38303  -0.92120
N     2.91197   0.93672  -1.78861
C     0.01772   1.84835   0.61492
C    -1.21763   1.37646   0.50607
C    -2.00819   1.50172  -0.77861
C    -1.97589   0.83330   1.69876
C    -0.56548  -1.10070  -0.16765
C    -1.54681  -1.99872  -0.46652
N    -2.51115  -2.63224  -0.68484
N     0.62987  -0.91000  -0.08310
H     2.87724   0.62654   1.73795
H     1.61201  -0.51427   2.30270
H     3.10215  -1.12935   1.51961
H     0.54984   2.29261  -0.23366
H     0.57054   1.81189   1.56810
H    -2.67983   0.65347  -0.98992
H    -2.63310   2.39180  -0.65928
H    -1.35366   1.65120  -1.65568
H    -1.30211   0.52742   2.51817
H    -2.64590  -0.01407   1.47029
H    -2.60308   1.65609   2.05686
23

C     2.36661  -0.32690   1.52386
C     1.72587  -0.27745   0.16721
C     2.35741   0.38709  -0.91947
N     2.91220   0.93473  -1.78797
C     0.02921   1.83111   0.61120
C    -1.21162   1.35247   0.49980
C    -2.00609   1.49978  -0.77867
C    -1.97426   0.83142   1.69794
C    -0.56977  -1.08191  -0.16276
C    -1.54792  -1.99048  -0.46422
N    -2.50706  -2.62949  -0.68388
N     0.63027  -0.92042  -0.08603
H     2.87805   0.62622   1.73866
H     1.61255  -0.51424   2.30340
H     3.10001  -1.12943   1.51549
H     0.54952   2.29299  -0.23316
H     0.56973   1.81297   1.56858
H    -2.68233   0.65575  -0.99062
H    -2.62886   2.39317  -0.65616
H    -1.35374   1.65021  -1.65626
H    -1.30236   0.52619   2.51824
H    -2.64852  -0.01252   1.47209
H    -2.59906   1.65883   2.05479
23

C     2.36348  -0.32361   1.52239
C     1.71106  -0.25828   0.17207
C     2.35416   0.39115  -0.91774
N     2.91244   0.93273  -1.78734
C     0.04071   1.81388   0.60748
C    -1.20562   1.32847   0.49354
C    -2.00399   1.49783  -0.77873
C    -1.97263   0.82953   1.69713
C    -0.57406  -1.06312  -0.15788
C    -1.54902  -1.98225  -0.46191
N    -2.50298  -2.62675  -0.68292
N     0.63068  -0.93085  -0.08896
H     2.87886   0.62591   1.73937
H     1.61309  -0.51421   2.30410
H     3.09787  -1.12950   1.51137
H     0.54920   2.29337  -0.23267
H     0.56891   1.81404   1.56906
H    -2.68484   0.65803  -0.99131
H    -2.62463   2.39454  -0.65304
H    -1.35381   1.64921  -1.65684
H    -1.30261   0.52496   2.51832
H    -2.65114  -0.01096   1.47390
H    -2.59504   1.66156   2.05273
23

C     2.36035  -0.32033   1.52093
C     1.69626  -0.23911   0.17693
C     2.35090   0.39521  -0.91600
N     2.91267   0.93073  -1.78670
C     0.05220   1.79664   0.60376
C    -1.19961   1.30448   0.48728
C    -2.00189   1.49589  -0.77878
C    -1.97099   0.82764   1.69631
C    -0.57836  -1.04434  -0.15300
C    -1.55013  -1.97401  -0.45961
N    -2.49890  -2.62400  -0.68196
N     0.63109  -0.94128  -0.09189
H     2.87968   0.62560   1.74008
H     1.61362  -0.51418   2.30480
H     3.09573  -1.12957   1.50726
H     0.54888   2.29375  -0.23217
H     0.56810   1.81511   1.56954
H    -2.68735   0.66031  -0.99200
H    -2.62040   2.39591  -0.64991
H    -1.35389   1.64821  -1.65741
H    -1.30286   0.52373   2.51839
H    -2.65376  -0.00941   1.47570
H    -2.59102   1.66429   2.05067
23

C     2.35723  -0.31704   1.51946
C     1.68146  -0.21994   0.18180
C     2.34765   0.39927  -0.91427
N     2.91290   0.92873  -1.78607
C     0.06369   1.77940   0.60003
C    -1.19360   1.28048   0.48102
C    -1.99979   1.49395  -0.77884
C    -1.96936   0.82576   1.69550
C    -0.58265  -1.02555  -0.14811
C    -1.55124  -1.96577  -0.45730
N    -2.49482  -2.62126  -0.68099
N     0.63150  -0.95170  -0.09482
H     2.88049   0.62529   1.74079
H     1.61416  -0.51414   2.30551
H     3.09359  -1.12965   1.50314
H     0.54856   2.29413  -0.23168
H     0.56729   1.81618   1.57002
H    -2.68985   0.66259  -0.99270
H    -2.61617   2.39727  -0.64679
H    -1.35396   1.64721  -1.65799
H    -1.30311   0.52250   2.51847
H    -2.65639  -0.00785   1.47751
H    -2.58700   1.66703   2.04860
23

C     2.35410  -0.31376   1.51799
C     1.66666  -0.20076   0.18666
C     2.34439   0.40333  -0.91254
N     2.91313   0.92674  -1.78543
C     0.07518   1.76216   0.59631
C    -1.18760   1.25649   0.47475
C    -1.99769   1.49201  -0.77890
C    -1.96773   0.82387   1.69468
C    -0.58694  -1.00676  -0.14323
C    -1.55234  -1.95753  -0.45500
N    -2.49074  -2.61851  -0.68003
N     0.63191  -0.96213  -0.09775
H     2.88131   0.62497   1.74150
H     1.61470  -0.51411   2.30621
H     3.09145  -1.12972   1.49902
H     0.54823   2.29451  -0.23118
H     0.56647   1.81725   1.57050
H    -2.69236   0.66487  -0.99339
H    -2.61193   2.39864  -0.64367
H    -1.35403   1.64621  -1.65856
H    -1.30336   0.52126   2.51854
H    -2.65901  -0.00630   1.47931
H    -2.58298   1.66976   2.04654
23

C     2.35098  -0.31047   1.51653
C     1.65185  -0.18159   0.19152
C     2.34113   0.40739  -0.91081
N     2.91336   0.92474  -1.78480
C     0.08668   1.74492   0.59259
C    -1.18159   1.23250   0.46849
C    -1.99559   1.49007  -0.77896
C    -1.96609   0.82198   1.69386
C    -0.59123  -0.98798  -0.13834
C    -1.55345  -1.94929  -0.45269
N    -2.48666  -2.61577  -0.67907
N     0.63232  -0.97256  -0.10068
H     2.88212   0.62466   1.74221
H     1.61523  -0.51408   2.30691
H     3.08931  -1.12980   1.49490
H     0.54791   2.29488  -0.23069
H     0.56566   1.81832   1.57098
H    -2.69486   0.66714  -0.99408
H    -2.60770   2.40001  -0.64055
H    -1.35411   1.64521  -1.65914
H    -1.30361   0.52003   2.51862
H    -2.66163  -0.00474   1.48112
H    -2.57896   1.67250   2.04447
23

C     2.34785  -0.30719   1.51506
C     1.63705  -0.16242   0.19638
C     2.33788   0.41145  -0.90908
N     2.91359   0.92274  -1.78416
C     0.09817   1.72768   0.58887
C    -1.17559   1.20850   0.46223
C    -1.99350   1.48813  -0.77902
C    -1.96446   0.82009   1.69305
C    -0.59553  -0.96919  -0.13346
C    -1.55456  -1.94106  -0.45039
N    -2.48258  -2.61303  -0.67810
N     0.63273  -0.98299  -0.10361
H     2.88293   0.62435   1.74293
H     1.61577  -0.51405   2.30761
H     3.08717  -1.12987   1.49078
H     0.54759   2.29526  -0.23019
H     0.56484   1.81940   1.57147
H    -2.69737   0.66942  -0.99478
H    -2.60347   2.40138  -0.63743
H    -1.35418   1.64422  -1.65971
H    -1.30386   0.51880   2.51869
H    -2.66425  -0.00319   1.48292
H    -2.57494   1.67523   2.04241
23

C     2.34473  -0.30390   1.51359
C     1.62225  -0.14325   0.20124
C     2.33462   0.41552  -0.90735
N     2.91382   0.92075  -1.78353
C     0.10966   1.71044   0.58515
C    -1.16958   1.18451   0.45597
C    -1.99140   1.48619  -0.77907
C    -1.96283   0.81821   1.69223
C    -0.59982  -0.95040  -0.12857
C    -1.55566  -1.93282  -0.44808
N    -2.47849  -2.61028  -0.67714
N     0.63314  -0.99341  -0.10654
H     2.88375   0.62404   1.74364
H     1.61631  -0.51402   2.30831
H     3.08503  -1.12994   1.48667
H     0.54727   2.29564  -0.22970
H     0.56403   1.82047   1.57195
H    -2.69988   0.67170  -0.99547
H    -2.59923   2.40275  -0.63430
H    -1.35426   1.64322  -1.66029
H    -1.30411   0.51757   2.51877
H    -2.66687  -0.00163   1.48473
H    -2.57092   1.67797   2.04035
23

C     2.34160  -0.30061   1.51213
C     1.60745  -0.12408   0.20610
C     2.33137   0.41958  -0.90562
N     2.91405   0.91875  -1.78290
C     0.12115   1.69320   0.58143
C    -1.16357   1.16051   0.44970
C    -1.98930   1.48425  -0.77913
C    -1.96119   0.81632   1.69141
C    -0.60411  -0.93161  -0.12369
C    -1.55677  -1.92458  -0.44578
N    -2.47441  -2.60754  -0.67618
N     0.63355  -1.00384  -0.10947
H     2.88456   0.62372   1.74435
H     1.61684  -0.51399   2.30901
H     3.08289  -1.13002   1.48255
H     0.54695   2.29602  -0.22920
H     0.56321   1.82154   1.57243
H    -2.70238   0.67398  -0.99616
H    -2.59500   2.40412  -0.63118
H    -1.35433   1.64222  -1.66086
H    -1.30436   0.51634   2.51884
H    -2.66949  -0.00008   1.48653
H    -2.56690   1.68070   2.03828
23

C     2.33848  -0.29733   1.51066
C     1.59265  -0.10490   0.21096
C     2.32811   0.42364  -0.90389
N     2.91429   0.91675  -1.78226
C     0.13264   1.67596   0.57771
C    -1.15757   1.13652   0.44344
C    -1.98720   1.48231  -0.77919
C    -1.95956   0.81443   1.69060
C    -0.60840  -0.91283  -0.11880
C    -1.55788  -1.91634  -0.44347
N    -2.47033  -2.60479  -0.67521
N     0.63396  -1.01427  -0.11241
H     2.88537   0.62341   1.74506
H     1.61738  -0.51396   2.30971
H     3.08075  -1.13009   1.47843
H     0.54663   2.29640  -0.22871
H     0.56240   1.82261   1.57291
H    -2.70489   0.67626  -0.99685
H    -2.59077   2.40549  -0.62806
H    -1.35440   1.64122  -1.66144
H    -1.30461   0.51511   2.51892
H    -2.67211   0.00148   1.48834
H    -2.56288   1.68344   2.03622
23

C     2.33535  -0.29404   1.50919
C     1.57784  -0.08573   0.21582
C     2.32485   0.42770  -0.90216
N     2.91452   0.91476  -1.78163
C     0.14414   1.65872   0.57398
C    -1.15156   1.11252   0.43718
C    -1.98510   1.48036  -0.77925
C    -1.95792   0.81255   1.68978
C    -0.61270  -0.89404  -0.11392
C    -1.55898  -1.90810  -0.44117
N    -2.46625  -2.60205  -0.67425
N     0.63437  -1.02469  -0.11534
H     2.88619   0.62310   1.74577
H     1.61792  -0.51392   2.31042
H     3.07861  -1.13016   1.47431
H     0.54631   2.29678  -0.22821
H     0.56159   1.82368   1.57339
H    -2.70739   0.67854  -0.99755
H    -2.58653   2.40686  -0.62494
H    -1.35448   1.64022  -1.66201
H    -1.30486   0.51388   2.51899
H    -2.67474   0.00304   1.49014
H    -2.55886   1.68617   2.03416
23

C     2.33223  -0.29076   1.50773
C     1.56304  -0.06656   0.22068
C     2.32160   0.43176  -0.90043
N     2.91475   0.91276  -1.78099
C     0.15563   1.64148   0.57026
C    -1.14556   1.08853   0.43092
C    -1.98300   1.47842  -0.77931
C    -1.95629   0.81066   1.68896
C    -0.61699  -0.87525  -0.10903
C    -1.56009  -1.89987  -0.43886
N    -2.46217  -2.59930  -0.67329
N     0.63477  -1.03512  -0.11827
H     2.88700   0.62279   1.74648
H     1.61845  -0.51389   2.31112
H     3.07647  -1.13024   1.47019
H     0.54598   2.29716  -0.22772
H     0.56077   1.82476   1.57387
H    -2.70990   0.68082  -0.99824
H    -2.58230   2.40823  -0.62181
H    -1.35455   1.63923  -1.66259
H    -1.30511   0.51265   2.51907
H    -2.67736   0.00459   1.49195
H    -2.55483   1.68890   2.03209
23

C     2.32910  -0.28747   1.50626
C     1.54824  -0.04739   0.22555
C     2.31834   0.43582  -0.89869
N     2.91498   0.91076  -1.78036
C     0.16712   1.62424   0.56654
C    -1.13955   1.06453   0.42466
C    -1.98090   1.47648  -0.77936
C    -1.95466   0.80877   1.68815
C    -0.62128  -0.85647  -0.10415
C    -1.56120  -1.89163  -0.43656
N    -2.45809  -2.59656  -0.67233
N     0.63518  -1.04555  -0.12120
H     2.88782   0.62247   1.74720
H     1.61899  -0.51386   2.31182
H     3.07433  -1.13031   1.46608
H     0.54566   2.29754  -0.22722
H     0.55996   1.82583   1.57435
H    -2.71241   0.68310  -0.99893
H    -2.57807   2.40959  -0.61869
H    -1.35463   1.63823  -1.66317
H    -1.30536   0.51142   2.51914
H    -2.67998   0.00615   1.49376
H    -2.55081   1.69164   2.03003
23

C     2.32597  -0.28419   1.50479
C     1.53344  -0.02822   0.23041
C     2.31509   0.43988  -0.89696
N     2.91521   0.90877  -1.77972
C     0.17861   1.60700   0.56282
C    -1.13354   1.04054   0.41839
C    -1.97881   1.47454  -0.77942
C    -1.95302   0.80689   1.68733
C    -0.62558  -0.83768  -0.09926
C    -1.56230  -1.88339  -0.43426
N    -2.45401  -2.59382  -0.67136
N     0.63559  -1.05598  -0.12413
H     2.88863   0.62216   1.74791
H     1.61952  -0.51383   2.31252
H     3.07219  -1.13038   1.46196
H     0.54534   2.29791  -0.22673
H     0.55914   1.82690   1.57484
H    -2.71491   0.68538  -0.99963
H    -2.57384   2.41096  -0.61557
H    -1.35470   1.63723  -1.66374
H    -1.30561   0.51019   2.51922
H    -2.68260   0.00770   1.49556
H    -2.54679   1.69437   2.02797
23

C     2.32285  -0.28090   1.50333
C     1.51863  -0.00904   0.23527
C     2.31183   0.44394  -0.89523
N     2.91544   0.90677  -1.77909
C     0.19011   1.58976   0.55910
C    -1.12754   1.01655   0.41213
C    -1.97671   1.47260  -0.77948
C    -1.95139   0.80500   1.68652
C    -0.62987  -0.81889  -0.09438
C    -1.56341  -1.87515  -0.43195
N    -2.44993  -2.59107  -0.67040
N     0.63600  -1.06640  -0.12706
H     2.88944   0.62185   1.74862
H     1.62006  -0.51380   2.31322
H     3.07005  -1.13046   1.45784
H     0.54502   2.29829  -0.22623
H     0.55833   1.82797   1.57532
H    -2.71742   0.68766  -1.00032
H    -2.56960   2.41233  -0.61245
H    -1.35477   1.63623  -1.66432
H    -1.30586   0.50896   2.51929
H    -2.68522   0.00926   1.49737
H    -2.54277   1.69711   2.02590
