13

O 3.722134418 -3.048562177 -0.379758549
C 3.200335323 -0.850571700 -0.649804646
C 0.643640794 0.227406713 -0.207034728
C -0.935323139 -1.080949421 1.863216820
C -1.594851427 -1.553145455 -0.766074826
C 0.424493979 2.941917769 -0.636523008
O -1.904643282 3.686914817 -0.190038059
H 4.626737848 0.549700051 -1.259087289
H -2.109368671 0.174404204 2.968849636
H 0.086412640 -2.532306347 2.878239253
H -3.244248703 -0.638062832 -1.552642353
H -1.034829333 -3.335786809 -1.596266303
H -1.988520402 5.477280805 -0.485572687

