14

C -2.976585967 0.733792559 1.788258528
C -1.158124721 -0.250672662 0.360078960
C -1.306491239 -2.568991657 -1.294415625
O 1.186892438 -2.967045382 -2.267744368
C 2.617891061 -0.974652100 -1.477969221
C 1.427664749 0.657717364 0.039756266
N 2.357759677 2.777051675 1.311603742
H -2.637492207 2.390401786 2.940002154
H -2.591955817 -2.298220568 -2.888648828
H -4.839013259 -0.108480843 1.886926911
H -1.880600278 -4.254194216 -0.253895552
H 4.547467106 -0.975579975 -2.145859188
H 1.191107604 4.280429019 1.163751343
H 4.118442868 3.267986554 0.775875192

