17

C -4.572716304 -1.148315796 -0.483091117
C -2.352377359 0.535832958 -1.196314877
C 0.147620926 -0.415872255 -0.155313718
O 0.629562372 -2.817138587 -1.227141904
C 2.267441521 1.413813472 -0.754297524
C 5.623084155 1.752801842 2.090507409
O 4.593519108 0.446318521 0.304692618
H -6.331564721 -0.414723736 -1.269211100
H -4.297449612 -3.062304719 -1.192085141
H -4.793660663 -1.254819872 1.567190296
H -2.191054293 0.659436995 -3.254759359
H -2.665511006 2.455552664 -0.496433018
H 0.008479447 -0.576254766 1.913927318
H 2.199342141 -3.442662538 -0.568866655
H 1.944396336 3.278423077 0.062586085
H 2.567300919 1.532879295 -2.791024612
H 7.312175506 0.599876589 2.591075696

