17

C -4.480705274 -0.969864895 -0.449677131
C -2.177435831 0.645697061 -1.049862973
C 0.273676959 -0.546117811 -0.118695455
O 0.569381322 -2.864791565 -1.366756363
C 2.447445021 1.280786485 -0.666903398
C 5.508316760 1.562769036 0.775629244
O 4.807138001 -0.747990506 0.452136704
H -6.202249761 -0.077093891 -1.148878764
H -4.316145429 -2.827130400 -1.323172607
H -4.688404903 -1.238805085 1.586903163
H -2.026829156 0.933152335 -3.092518699
H -2.380739994 2.511802497 -0.182767470
H 0.155529373 -0.818075573 1.938350856
H 2.199390820 -3.530866091 -0.925181640
H 2.039312612 3.037208702 0.369662253
H 2.838077867 1.567707779 -2.652941625
H 5.484510179 2.036579746 2.855843730

