15

N 2.953908460 0.034986163 -2.349337867
C 1.965815153 1.877753084 -0.607563106
O 2.593418522 4.060848929 -0.281416881
N 1.874485294 0.009799666 2.098672386
C -0.594658148 0.392046985 1.692073981
C -2.445898677 -1.715224165 1.250815504
O -4.861759155 -0.895267540 0.538358010
H 2.748243235 0.752372384 -4.111518911
H 4.835426049 -0.121414299 -2.019093525
H 2.352239088 -1.775051005 1.577654352
H -0.348856860 1.569770755 -0.990634988
H -1.353786530 2.182945535 2.376665310
H -2.470143712 -2.858133039 2.986933238
H -1.726268046 -2.917448745 -0.264768998
H -5.727154604 -0.214362765 1.976901628

