19

C 3.094150988 1.767229221 1.171693900
C 1.430922845 -0.531656247 1.009626320
C 2.601510971 -1.983304455 -2.207053546
C -1.300974127 -0.026684256 1.225949090
C -3.644625600 -1.455511885 0.617296311
C -3.184919012 1.214623715 -0.357489488
O -4.548857548 3.302142617 0.535585838
H 2.920236167 2.529233161 3.078951222
H 5.070788622 1.338693703 0.783984762
H 2.444117119 3.213277849 -0.143140386
H 1.993873278 -2.160126412 2.116573800
H 4.422721390 -2.665471417 -1.556378568
H 2.809461706 -0.507874667 -3.625146114
H 1.465587622 -3.556118765 -2.906626983
H 0.227594249 -0.997071716 -0.852970991
H -3.683081659 -2.943762123 -0.812731881
H -5.028407356 -1.736470489 2.107132974
H -2.976650747 1.381241057 -2.402206603
H -4.004557238 3.565903370 2.246736208

