12

C -1.882938398 -2.141572798 -0.183035943
C -0.718447568 0.251116936 -1.315936563
C -2.337803791 1.363577201 -3.438540308
H -4.203308238 1.885671131 -2.732386071
H -2.579627735 -0.035019479 -4.933569258
H -1.463642186 3.043247435 -4.248519350
C -0.301528877 2.147112813 0.665179892
N -0.002584767 3.631420648 2.217452067
H 1.149152774 -0.211362503 -2.072998907
H -2.109690888 -3.567767132 -1.654136255
H -0.693868372 -2.920904998 1.306948061
H -3.739719113 -1.737748000 0.617602862

