16

C -1.776809168 -1.681274801 1.054833369
C -0.716274307 0.645639481 -0.215692376
C -0.972928972 0.626284339 -3.083298952
C 3.345102290 0.370532680 1.426434084
O 3.745249246 -2.058310746 1.942512827
C -1.528062515 2.990119259 0.904837831
N -2.086251632 4.885802179 1.812654986
H -0.675563446 -3.346065313 0.527843989
H -1.736102691 -1.523003435 3.106677982
H -3.730191322 -2.004879421 0.463827778
H -2.962976651 0.604213945 -3.637285110
H -0.083099610 -1.068349087 -3.856387554
H -0.088815767 2.279650021 -3.938051596
H 1.896744114 0.881009387 -0.298032090
H 2.646244323 1.291361052 3.141735860
H 4.564082580 -2.843538079 0.523103573

