17

C 3.313929840 -0.409977954 -0.671692833
C 1.069348884 0.526731640 1.784479264
C -1.045471779 -1.425981778 2.152435283
C -2.422561995 -0.663714428 -0.248446394
C -0.068839775 -1.034198259 -1.914905440
C -2.605404828 2.172034861 0.071047750
C -0.408528231 2.852794090 1.099931021
H 3.575139823 -0.941781127 -2.683140677
H 4.315197221 1.383344794 -0.558087582
H 4.290363291 -1.864158017 0.397346230
H -2.062934755 -1.041375533 3.905279984
H -0.366735464 -3.375870282 2.156350305
H -4.132741915 -1.636856429 -0.902058196
H 0.033877271 0.158118506 -3.586509908
H 0.295119152 -3.008677220 -2.375870170
H -4.150008777 3.343553603 -0.586262926
H 0.278209146 4.755666208 1.410488783

