11

N 1.831689101 0.771905425 1.931641837
C 0.473600837 2.492697310 0.278586997
C 1.621662824 -0.284085250 -0.553266172
C -0.925598325 -1.378026406 -1.012537159
O -1.965580185 -2.488382347 1.168545824
C -1.154860881 1.441454326 -1.539485041
H 0.630759268 -0.217053414 3.060382357
H 1.242636902 4.386517318 0.113494702
H 3.249596042 -0.352018069 -1.779847923
H -1.180814493 -2.558597256 -2.672716721
H -3.727102414 -2.067381696 1.222054912

