16

C 3.598043606 -1.397892983 -0.109000782
C 2.646000661 1.268462088 -0.191027142
N 4.088170230 3.085407358 -0.724531238
O 0.156333527 1.684666859 0.334897906
C -1.419115023 -0.412963437 0.953890341
C -2.143079930 -2.260297922 -0.886220703
C -4.245734574 0.423677240 0.692631622
H 3.328896490 -2.232872723 1.758122177
H 2.614835940 -2.597829483 -1.471461552
H 5.599750195 -1.376925829 -0.559392324
H 3.118300327 4.746451488 -0.685201767
H -1.021337028 -1.053135676 2.867667236
H -1.772635595 -1.414595403 -2.758902122
H -5.167395031 -0.392548159 -0.998939578
H -4.202369611 2.461891580 0.429294186
H -5.349162835 -0.167979702 2.312956406

