9

O -3.945612844 -0.737664892 0.194249200
C -1.560334956 -1.328430865 -0.178120747
N 0.110179367 -2.704674598 -0.647662547
C 3.557572910 0.031704559 -0.219335919
N 2.174182573 1.728438850 0.167197676
N -0.137686579 2.333116817 0.237993299
H -4.935775287 -2.243821570 -0.072069543
H 5.271870694 -0.666424938 -1.027739949
H -0.490319924 3.666348475 1.570948829

