8

N -0.697667686 2.685969181 -1.256804330
C -0.778699331 1.117400500 0.767639633
O 0.088637283 1.585134833 2.816104528
C -2.128005055 -1.399461229 0.189370589
O -2.388030123 -3.009965995 1.737212244
H -2.852118797 -1.628336108 -1.770799083
H 0.146748723 4.376999675 -1.076681078
H -1.444277256 2.211063356 -2.932587681

