14

C -1.713561018 2.285964881 -0.572892150
C -0.865530205 -0.468218122 -0.477412150
C -2.655296942 -2.152881372 -1.984862327
H -2.789567728 -1.542183040 -3.952135857
H -2.027634501 -4.119495162 -1.972846938
H -4.558397433 -2.097035808 -1.177830162
C -0.636601998 -1.384271270 2.246676209
H -2.471004577 -1.308358893 3.198143013
H 0.032949095 -3.335094867 2.331684291
H 0.677146715 -0.215250483 3.327575723
H 1.009422759 -0.587447728 -1.350828598
H -1.809576698 2.978537676 -2.515201189
H -0.420662692 3.508325003 0.473560397
H -3.592819836 2.498830473 0.263372793

