18

C -1.833947891 2.405858442 -0.438825095
C -0.592129751 -0.165392988 -0.172832405
C -1.655011652 -2.148624348 -1.933555317
C -0.420365891 -0.985586604 2.549325258
C 3.551201434 0.077197183 -0.884151680
O 4.397413271 1.469797006 1.097571604
H -1.885079250 3.037844992 -2.403456241
H -0.823774798 3.822237822 0.675289322
H -3.779738939 2.343748152 0.260223262
H -1.589253983 -1.528346749 -3.901862188
H -0.606302262 -3.919408824 -1.786937930
H -3.631212268 -2.550084191 -1.468394035
H -2.296462650 -0.922660878 3.426042170
H 0.295793029 -2.910958632 2.726021379
H 0.815561784 0.266076821 3.629015820
H 3.645575887 -1.915748031 -0.350319073
H 1.432368750 0.522916339 -1.553285200
H 4.699933876 3.156535609 0.507398872

