12

C 2.114608541 -0.952546103 0.218451131
C -0.515206313 -1.173883110 1.372006778
C -1.202318896 1.649401339 1.824426147
O -3.383188964 1.528921434 0.248397904
C -1.863968175 -0.299386513 -1.035551869
C 0.729950028 1.023797527 -1.326796479
H 2.783090427 -2.599894726 -0.830991190
H 3.606253067 -0.260350308 1.468545138
H -1.209847999 -2.585313486 2.692270265
H 0.368564190 2.876581396 0.711030827
H -2.797037343 -1.390200532 -2.528733102
H 1.414131702 2.200392715 -2.874479208

