15

O 3.800609094 -2.376994727 0.871320742
C 1.939170336 -0.510474383 0.824625874
C 2.037815778 1.495432766 -1.268562962
C -2.625064215 2.356886019 0.395110855
C -3.002578488 -0.415166480 1.204020500
C -0.681624515 -1.208726825 -0.228657239
O -0.558090964 0.981541928 -1.990033127
H 3.995474156 -3.087278508 -0.786973534
H 1.843019049 0.289968213 2.714954991
H 2.251896105 3.457211672 -0.698473049
H 3.302026134 1.015114500 -2.831316295
H -4.135691399 2.893156580 -0.922384808
H -2.838493588 -0.705858382 3.241046411
H -4.694659594 -1.388604242 0.519581200
H -0.720421557 -3.001931314 -1.251980124

