12

O -1.050213517 -3.920607496 2.650296235
C -0.334042106 -2.171051731 1.393331695
C 2.047553840 -1.991592397 -0.101499326
N -2.278348321 0.887400327 -1.575131247
C -1.646724447 0.354116723 1.084461704
C 0.046189347 1.926121437 -0.458852356
C 2.284722802 0.314879584 -1.077499708
H 3.316065457 -3.573380336 -0.343678878
H -3.643956713 2.234763942 -1.619928697
H -2.832078667 1.071655748 2.586066070
H 0.228126774 3.944498056 -0.190583982
H 3.823523950 0.958978126 -2.261169029

