12

O -1.305928214 -3.710789750 2.410514122
C -0.488404063 -1.901595305 1.297551266
C 1.567348844 -1.744239531 -0.599314697
N -2.195610140 0.176072095 -1.606085528
C -1.441242450 0.760093957 1.017963754
C 0.779983381 2.323357024 0.312005726
C 2.547466373 0.724423335 -0.693852253
H 2.438754095 -3.397328462 -1.437596998
H -4.070314718 -0.348597192 -1.568593834
H -2.868894122 1.488312296 2.300502091
H 0.787488352 4.363574210 0.249123143
H 4.246196838 1.273748994 -1.681551627

