11

C 3.944968617 -2.539553201 1.947588159
C 2.270163539 -1.661199107 0.713285346
C 0.563197477 1.842786613 -2.107053813
C 0.201418859 -0.607479297 -0.753930161
N -2.123067125 -0.283784122 0.721946981
N -3.147676460 1.842878982 0.244659100
C -1.649259987 3.105660932 -1.396498365
H 5.462941129 -3.298676727 3.027795031
H -0.279701576 -1.883092298 -2.334202635
H -2.962289149 -1.508971085 1.913541115
H -2.266057486 4.965078967 -1.968383215

