12

C -4.583809714 1.568532833 0.170868545
C -2.133484883 0.324961651 -0.022476724
C -0.118904043 -0.694299778 -0.186896824
C 2.347853903 -1.919760713 -0.389603361
C 5.910247221 -0.264993290 -3.159146493
C 4.387175831 -0.118868139 -1.259292230
H -5.418293363 1.262335955 2.030918883
H -4.389233081 3.600543864 -0.118793457
H -5.888775944 0.841392696 -1.249576902
H 2.238158873 -3.510837035 -1.695965551
H 2.894311260 -2.689623231 1.446786018
H 4.736867685 1.630452053 -0.208221722

