12

C 3.287455854 -0.686046512 -0.315191105
C 4.532903497 -1.151719419 -2.357801365
C 0.739285937 -1.531073435 0.618556720
C -1.021092441 0.678817705 0.992404735
C -2.777443018 1.467243267 -0.975199214
O -3.617538342 0.082704242 1.167561428
H 4.466900560 0.589932415 0.824435276
H 0.970410780 -2.533553812 2.408842017
H -0.100393307 -2.850784140 -0.722163582
H -0.385800665 2.094330948 2.345219152
H -2.811616127 0.439272658 -2.752423366
H -3.408953055 3.417108849 -1.062184951

