12

C 4.281447771 -0.676755712 0.183850264
C 3.111754127 -0.088186432 -1.780217535
C 0.839042519 -1.249246427 0.212061041
C -0.976053275 0.899112509 0.609551344
C -3.116712258 1.271838348 -1.067128475
O -3.436131153 0.177449384 1.372417396
H 5.455716668 -1.123116449 1.769850838
H 1.238024931 -2.102012628 2.066082094
H 0.043516613 -2.754854480 -0.936376567
H -0.195165321 2.521760731 1.600822508
H -3.377819534 -0.012379199 -2.646928498
H -3.921565209 3.144540762 -1.295751207

