10

C -1.272514096 -0.032677730 1.847365098
C 0.408461902 -1.039400637 3.369992950
H 1.386655311 0.092420590 4.768934410
H 0.869527354 -3.032697302 3.269951283
C -3.080037417 -0.368219598 -0.212897471
H -4.843479891 -1.334437246 0.177372812
H -2.362267411 -0.641030269 -2.111831589
C -2.657293551 2.210104736 1.025076815
H -1.660427683 3.633819712 -0.058759654
H -4.141163253 2.941885398 2.232381999

