15

O 1.371039503 -0.108445316 -2.418835096
C -0.701870248 0.013782037 0.659524168
C 1.369764467 -0.040735560 2.276911732
C 3.481608565 -0.420424549 -0.435895888
O 5.150064258 1.156680612 -0.572957723
C -2.972827774 -1.408684019 0.005688624
C -2.941184197 1.476229822 -0.032545241
H 1.679170742 1.584203746 -3.029419194
H 1.941753724 1.719597842 3.150480039
H 1.623534125 -1.716910482 3.426868453
H 3.817156008 -2.472174695 -0.393296604
H -3.916576881 -2.387254919 1.536887461
H -3.048215866 -2.340636113 -1.809932571
H -3.042250397 2.367110307 -1.868283629
H -3.845566585 2.514640828 1.482983987

