15

C -3.364040520 0.228262985 -1.261819002
C -3.127866801 -0.550114657 1.391368382
C -0.741270395 0.090023359 -0.081940320
C 1.504171275 -1.564064595 -0.784363445
C 3.019232380 0.617142298 0.457953980
O 5.366083103 1.364803293 -0.460747732
C 0.773370057 2.349414193 0.396626226
H -3.751915897 -1.201354172 -2.671213614
H -4.040698344 2.109677528 -1.682763792
H -3.665725470 0.762581781 2.861060943
H -3.334451359 -2.531597983 1.856193388
H 1.688787710 -3.441284228 0.045895060
H 1.815492070 -1.660888625 -2.816447627
H 3.120925025 0.166318254 2.500212505
H 5.283790481 3.157980910 -0.736862023

