15

C -2.825908768 0.607625902 -1.478757331
C -3.121247317 -0.363057037 1.154049792
C -0.529344772 0.030192740 0.054667434
C 1.543190586 -1.954734480 -0.313701888
C 3.385770859 0.077708902 0.608855660
O 3.568921698 1.964891285 -1.286177553
C 1.269774446 1.888407209 1.201848392
H -3.239355314 -0.670620130 -3.021692785
H -3.247999110 2.574209928 -1.846294757
H -3.730634538 0.941595461 2.605727385
H -3.725396766 -2.300013615 1.418229290
H 1.380251596 -3.537444870 0.995629837
H 1.885347138 -2.651061896 -2.221616740
H 5.105994276 -0.266536780 1.673055003
H 2.629299904 3.572921020 -0.179264806

