12

N -2.553386469 -1.684783115 2.278767632
C -1.294419026 -0.201874321 0.445295215
O -3.762263603 0.434446770 0.867532276
C 0.874173132 1.543335074 1.133584719
O 2.071377258 1.968594657 -1.213685523
C 1.704888686 -0.256778594 -2.578119885
O -0.718705799 -1.180501838 -1.895761022
H 3.137116765 -1.682486777 -2.094381083
H -3.213231324 -3.252512702 1.366235535
H 0.214220620 3.327358272 1.909379068
H 2.138507737 0.603538727 2.479174127
H 1.729810602 0.158012927 -4.593408786

