18

C -1.539787945 -3.306256702 -0.859071348
C -0.670804397 -0.660353909 -1.301938265
C -2.840746293 3.140564892 0.578748014
N 1.600031147 0.149928187 -0.383495766
C 3.320404004 -1.529424668 0.933626127
C 1.977724396 2.647387720 -0.313030978
O 0.192790369 4.042930432 -1.074250512
H -1.548532123 -3.815889948 1.145896549
H -3.480351992 -3.489901572 -1.529314553
H -0.429414996 -4.751111741 -1.853839186
H -1.316320479 0.337544789 -2.955423434
H -2.960345566 5.152454100 0.928039209
H -4.363552213 2.458803428 -0.604430205
H -2.593775321 2.058643471 2.303705025
H 2.435669004 -2.310817123 2.622890463
H 3.890640201 -3.077181701 -0.298840628
H 4.985614376 -0.461303066 1.496732746
H 3.628759649 3.349356649 0.691179670

