15

O 0.065557113 -4.130733136 2.438204071
C 0.642782896 -2.414236505 1.045016109
C -1.209280912 -1.475622030 -0.945142232
C -2.865816325 0.572839275 0.115319101
C -3.126043764 2.854836676 -0.872766212
C 3.935726685 0.815818106 0.036790473
C 3.146212754 -1.175292392 1.337387638
H -0.240428135 -0.811744556 -2.638935183
H -2.368580400 -3.105475871 -1.452840474
H -3.902979621 0.074094328 1.816308243
H 2.781367224 1.716325063 -1.393499691
H -2.124543342 3.415040411 -2.572987237
H -4.364309483 4.247072122 -0.026807787
H 5.778307544 1.639492484 0.378619177
H 4.320063814 -2.029200800 2.785458991

