11

C -1.697719103 -1.634522996 0.828213462
C -0.893353040 1.077584122 0.311368662
C 1.829089046 1.226471127 -0.659240199
C 1.994204584 2.170538066 -2.927797131
C 3.910032759 0.372803715 0.810172927
N 5.552192119 -0.332727329 2.040991066
H -0.456239621 -2.531425432 2.208402962
H -1.658467791 -2.755387704 -0.900346141
H -3.617674118 -1.664211254 1.577406685
H -0.986588480 2.242397056 2.011834104
H -2.134514614 1.958113952 -1.085868341

