11

C -2.734426351 -1.696538875 0.955863120
C -1.723191704 0.916535898 0.242908231
C 1.022140048 0.976808958 0.065108038
C 3.286456321 0.987040861 -0.071566139
C 5.885094607 1.003135659 -0.229828964
N 8.055488260 1.013390862 -0.361436748
H -2.000195621 -2.294793965 2.784970308
H -2.188136519 -3.102596911 -0.446581004
H -4.791330537 -1.651492642 1.063830563
H -2.310175561 2.323614650 1.636675979
H -2.501722925 1.524895504 -1.571219986

