11

O 5.163261236 -2.588714993 -0.439712435
C 3.802720749 -0.890003160 -0.523998529
C 2.312594864 1.093079555 -0.633059990
C -0.225112453 1.044820863 0.565458156
N -2.447730388 0.444183811 -1.096619201
C -2.790847148 -1.470561381 0.656327961
N -0.801546687 -1.260832111 2.034116299
H 3.012645702 2.735817738 -1.624446938
H -0.579059384 2.750646985 1.670660096
H -3.815028724 1.732365739 -1.449542524
H -4.312348459 -2.844697578 0.752245678

