12

C -1.805303404 1.874540380 1.987362944
C -0.855800043 -1.931742881 -0.702087623
N 1.633411931 -1.248320820 -0.874143558
C 2.689404703 -0.032926342 1.051203394
O 1.322976624 0.332249814 2.970141415
H -3.507433184 0.795833081 2.316551572
H -1.766762874 2.830477880 0.177447891
H -1.312679280 3.099102146 3.547655230
H -1.709530874 -2.549955747 -2.454083081
H -1.403996515 -2.875023090 1.018102422
H 2.512513186 -1.233836561 -2.562227061
H 4.543726507 0.816295640 0.790816066

