14

O 4.047372271 2.495493046 0.194582642
N 3.211365446 0.694947085 -1.624160512
C 1.232838974 -0.456346938 -0.588007861
C -0.315341754 -2.579156966 -1.308971561
C -2.666141910 -1.712322623 0.025952006
C -1.410922834 0.834019910 0.418582103
O -1.418359851 1.792611096 2.843386315
H 5.532168052 3.174671651 -0.586860231
H 1.638531993 -1.293465848 1.329355262
H -0.142021271 -3.866671236 -2.893405779
H -3.239947799 -2.734474464 1.723931116
H -4.301952036 -1.561289022 -1.229064133
H -1.950652048 2.224504279 -1.005194988
H -0.276397485 3.205356023 2.907137001

