16

O -2.300898706 -0.836270347 3.112613839
C -2.029184851 -0.986465969 0.446701814
C -1.677635831 1.625049666 -0.722223373
C 2.782850375 -1.639943769 -0.377357936
C 2.882881062 1.122334764 -0.574244003
N 0.732549271 2.765742288 -0.080607439
C 0.192620502 -2.687013293 -0.287611535
H -0.689376399 -0.461357301 3.854132544
H -3.802373871 -1.811048530 -0.216632477
H -3.197932857 2.875789733 -0.111997208
H -1.802729351 1.466474924 -2.785567518
H 3.382552637 1.188020453 -2.622097893
H 4.585540552 1.881793376 0.312975118
H 0.743715833 3.403240621 1.717426358
H 0.006287516 -3.292175256 -2.279070537
H 0.161586342 -4.478296289 0.744722376

