16

O -3.900811973 -1.538212159 2.313814266
C -2.369258717 -1.262301713 0.169403383
C -1.739188123 1.489519435 -0.607438101
C 1.135215156 -0.313947136 -1.688035164
C 3.432807446 1.184345616 -1.473598416
N 1.533061408 2.594761437 -0.076207741
C 0.349269292 -2.236157502 0.258443839
H -2.940456747 -1.103173791 3.789331529
H -3.373654313 -2.156301002 -1.392572573
H -2.238362907 2.744215510 0.966320921
H -2.570317754 2.219354964 -2.329643349
H 4.176820948 2.124928638 -3.140447502
H 4.899015994 0.443907684 -0.229670926
H 1.759464733 2.171489354 1.788548279
H 0.594266029 -4.183851221 -0.367626168
H 1.222579878 -2.042699228 2.150545501

