10

C -2.411705557 -0.159483115 0.773766106
C 0.099056514 0.642086116 -0.191974329
O 0.487409897 2.908152351 -0.937774530
C 2.395782592 -0.725494564 -0.378636562
H -3.668507468 1.443002031 1.049542702
H -3.256450211 -1.501783984 -0.546361907
H -2.155112081 -1.161494009 2.558847532
H 2.953863220 -0.985003963 -2.344282510
H 2.691381168 2.033777755 -0.778614992
H 2.768612650 -2.362976361 0.797219497

