17

C -3.553731531 -0.294835977 0.301144072
C -1.434152972 -0.627203275 -1.576255010
N -1.177941032 1.368681049 -3.362809043
C 1.405540761 1.134583798 -2.594009949
C 1.177584724 -0.842591103 0.525191891
C 3.787395600 -0.266055580 1.407325476
N 1.575991337 0.789265640 2.695145465
H -5.334731432 -0.272820441 -0.741982066
H -3.372954132 1.473733891 1.341754417
H -3.591448783 -1.839759517 1.662046460
H -1.420739829 -2.458809267 -2.504213716
H -1.906043324 2.979024432 -2.617298915
H 2.215889679 -0.400352123 -3.751736675
H 0.637952000 -2.743117334 1.120687357
H 4.765254848 -1.720400314 2.471908470
H 4.944105218 0.972724277 0.272165386
H 1.391939136 2.601177586 2.087783784

