17

C -3.391933974 1.036406952 -0.129216241
C -1.914509221 -1.389247524 -0.286713008
C 0.661275151 -1.590685091 -1.455254259
C 2.232222960 0.798854961 -1.780794620
C 2.685841870 1.686582418 0.890055071
C 1.684094783 0.123865311 2.581106087
C 0.340219791 -2.018901453 1.359923548
H -4.248623530 1.479838103 -1.954991936
H -4.910623505 0.873163168 1.258387221
H -2.211505401 2.632538781 0.420611518
H -3.090459465 -3.026626009 -0.667782763
H 1.018439738 -3.163211313 -2.712679912
H 1.256854786 2.235666797 -2.908499550
H 4.012004346 0.400303501 -2.753896332
H 3.669736546 3.426810911 1.331018202
H 1.771118579 0.377685747 4.610104705
H 0.435846547 -3.883045278 2.198622269

