11

C -4.315080701 0.242023914 -0.695807080
C -1.898801289 1.205945469 0.536447156
C -0.229468650 -0.920229613 1.526425483
H 0.313681573 -2.207025333 0.004799961
H -1.219145509 -2.034671293 2.956460913
H 1.500179474 -0.191346411 2.381972984
H -0.834100526 2.338794934 -0.826797642
H -2.378986423 2.484489114 2.088972573
H -3.889677196 -0.981122239 -2.305023241
H -5.441650907 -0.861323637 0.638367702
H -5.491329615 1.793223575 -1.378233860

