15

C -4.242074968 0.122562005 -0.246887238
C -1.590122444 1.203387801 0.107186645
C 0.391866611 -0.832045147 0.389992191
C 4.151883442 0.643901160 0.103738538
O 5.474212835 -1.366182321 -0.781229372
H -4.334089172 -1.078518591 -1.923109894
H -4.802405730 -1.022545754 1.376701330
H -5.636430308 1.626234317 -0.471932058
H -1.116950405 2.408250986 -1.503798999
H -1.565901314 2.430899883 1.771374014
H 0.713205902 -1.952893565 -1.298726827
H 0.026615923 -2.101286614 1.982782513
H 3.442842364 1.718496151 -1.508300478
H 2.390813992 0.170606119 1.529736189
H 6.452550733 -2.042604193 0.586378577

