8

O 3.447629985 3.625475550 -0.382192101
C 1.338957093 3.349206737 -0.936349298
N -0.795411369 3.215567800 -1.686192398
C -3.059239186 2.003632334 -1.120028088
C -3.431085849 0.441364396 0.800488799
H -5.269932080 -0.406270122 1.071958483
H -1.947348939 -0.027790898 2.129739125
H -4.556961865 2.461641910 -2.435541957

