14

C 4.286542642 0.408794078 0.455521015
N 2.793535869 -1.584666257 0.717266999
C 0.780080910 -0.569399539 -1.195927030
O 0.792421464 -1.415292504 -3.345137250
N -1.513300995 -0.380778038 0.279981218
C -3.751372393 0.025825489 -0.993999891
N -5.599601209 1.065538157 0.115695194
H 5.096731576 0.743936080 -1.396022494
H 5.190157802 1.327215242 2.062572627
H 1.686101766 1.735050945 -1.044562594
H 2.178504396 -2.041736374 2.462022122
H -1.424390893 0.593356826 1.920166230
H -3.714790980 -0.693594154 -2.924137525
H -7.133019019 1.109133213 -1.031065754

