21

C 3.829045995 -1.461366937 1.318334776
C 1.725474815 -1.271386364 -0.541979084
C 0.084827217 0.856956669 -0.487249327
C 0.966421096 3.290331923 0.253669219
C -2.135379693 0.810204996 -2.403242456
C -2.844738925 0.347946843 0.200406136
C -3.709353218 -2.167187204 1.189514527
H 4.808289525 -3.268053923 1.190246551
H 5.226317466 0.044915332 1.080889271
H 3.096346642 -1.257416393 3.258127173
H 3.600439419 0.985323289 -2.807875943
H 1.015801246 -3.011207885 -1.355774767
H 2.523971483 3.468312906 1.563887074
H -0.301953120 4.893174038 0.141241173
H 3.453595700 2.472075900 -2.478525157
H -2.552505497 2.616621165 -3.259933448
H -2.081757504 -0.782807690 -3.684950428
H -3.614527403 1.942689989 1.220076067
H -3.070279835 -2.468693423 3.125163265
H -3.040920238 -3.729568109 0.030692403
H -5.775654387 -2.201036148 1.192846871

