9

O -2.852858492 1.652792698 -0.338898154
C -1.791528963 -0.139465870 1.301412033
C 0.694656936 -1.066629152 0.489848003
C 2.452476247 -2.470830287 -0.371585371
C 5.199565577 -0.486853014 -0.186085735
N 3.291961264 0.595255433 0.533068232
H -1.811321614 3.138430143 -0.351296912
H -3.048084114 -1.774636928 1.329247529
H -1.638123944 0.571582551 3.239934118

