14

O 2.164234922 -0.286282358 -3.532794953
C 1.439507587 0.100725313 1.542996000
C 0.357444342 2.272139966 0.215148229
N -0.995735642 1.147460506 -1.814770402
C -1.932120373 -1.283550172 -1.038356752
C 0.038636377 -2.131371017 0.917960940
O 0.238595460 -4.279110557 1.717301069
H 3.286934252 -1.134448796 -2.380299083
H 2.826141223 0.222799088 3.033406346
H -1.054722139 3.197234773 1.458634053
H 1.667757118 3.715953426 -0.441116029
H -1.906984974 2.209686180 -3.105658796
H -2.130240847 -2.577104554 -2.619849762
H -3.760614287 -1.074034895 -0.071577515

