16

C -3.996125771 -0.735525854 -1.868208172
C -1.779647046 -1.576806073 -0.238221256
C 1.792297874 -0.143993427 2.477338031
C 4.379099973 0.767429420 2.152622895
C 0.020352936 0.585340040 0.464943945
O 0.948797019 1.875294872 -1.716769224
H -3.365561259 0.131880925 -3.628392248
H -5.151471253 0.653595965 -0.870005133
H -5.203271179 -2.338440686 -2.342849492
H -2.442315643 -2.432411097 1.514433603
H -0.688608943 -3.041404574 -1.219002702
H 4.200470266 2.670118933 3.000609072
H 5.750367830 -0.235318372 3.315550507
H 5.046244141 1.079064835 0.217882304
H -1.106787420 2.009428766 1.502230507
H 1.407081890 0.647623259 -2.970828104

