17

C 3.656153364 -0.810539496 -0.474165657
C 2.302827644 0.980819807 1.331713244
C 0.128588587 2.472900236 0.147409844
C -2.245569396 0.961002797 -0.358758684
O -2.092184994 -1.067991248 -2.179428320
C -3.525299638 -2.518199598 -0.393888750
C -3.593132869 -0.536270165 1.602319719
H 5.225465521 -1.757212784 0.472387652
H 4.428382235 0.221451165 -2.087833579
H 2.384191465 -2.245996266 -1.223435773
H 3.670090472 2.339939125 2.076003666
H -0.428877388 4.005489855 1.415418719
H 0.741998487 3.342941804 -1.625698126
H -3.795657369 2.262030120 -0.927016262
H -2.472197126 -4.167276225 0.312151122
H -5.356596016 -3.178430581 -1.095786379
H 1.585464024 -0.058066276 2.971412105

