17

C 3.175189172 -1.062001289 -0.557253343
C 1.700786601 0.787329597 1.019905882
C 0.059495778 2.737292574 -0.354331812
C -2.443604512 1.391800979 -0.258338090
O -2.608693896 -0.644001712 -2.084114919
C -2.489758427 -2.438136154 -0.042378677
C -2.086347649 -0.452155715 1.967591231
H 3.854453608 -2.655260338 0.563223612
H 4.832027263 -0.105696577 -1.341695608
H 2.064731091 -1.765895187 -2.141629338
H 2.869724128 1.599762485 2.517142599
H -0.032910582 4.505704480 0.702023901
H 0.703213729 3.153208236 -2.271236375
H -4.144308456 2.562716633 -0.298916179
H -1.062637503 -3.909634178 -0.313384962
H -4.324167902 -3.361349891 0.248832862
H 0.223874531 -0.225759344 2.636954920

