14

O -1.178615683 4.026271627 2.675256664
C 2.254838200 -1.543310205 -2.001599820
C -0.200842908 -2.087941501 -0.601799309
C -0.687145672 -0.273660349 1.576830337
C -1.310390991 2.375088447 0.743487554
O -1.909369639 3.013807184 -1.349967129
H -1.660578615 5.655526104 2.009536745
H 3.876595945 -1.636063311 -0.725116109
H 2.567423373 -2.916643249 -3.507303001
H -0.159723791 -4.008719624 0.156530607
H -1.789224253 -1.997661763 -1.916468376
H -2.290838674 -0.901857582 2.722425797
H 0.924316826 -0.181539847 2.865394973
H 2.218833494 0.330732194 -2.860424842

