14

O 1.447471460 2.353618739 1.087102181
C 2.016091959 -0.771857332 -1.510087989
C 0.487458841 -2.276986962 0.275252140
C -1.857028760 -0.702561112 1.061370763
C -1.292322923 1.976257515 0.101591695
O -2.731136357 3.768696589 0.478489445
H 1.964536111 3.958385219 0.402897471
H 3.969358254 -0.370067486 -1.072561343
H 1.585202618 -0.818529844 -3.513131937
H 1.621214883 -2.739272497 1.927161901
H -0.110864147 -4.020687335 -0.660802209
H -3.569233295 -1.378987275 0.139381720
H -2.161826637 -0.692529407 3.099399929
H -0.713640615 1.568547403 -2.029277769

