15

C 5.165196920 0.339928811 -0.592339718
O 2.552268734 0.770722098 -0.509381705
C 1.252393029 -1.169753227 0.692374600
C -1.540470741 -0.719293258 0.749731681
C -5.315321110 1.356926820 0.008670177
N -2.600499798 1.182712383 -0.185484594
H 5.621356020 -1.388884451 -1.647063596
H 5.975208143 0.179529349 1.312317227
H 6.021722146 1.949435385 -1.545977025
H 1.906107386 -1.410489312 2.658768615
H 1.585554825 -2.999564791 -0.252633952
H -2.613753222 -2.231090806 1.700173971
H -6.185593243 -0.258417969 0.983141090
H -6.119136280 1.504798777 -1.885855134
H -5.811345021 3.090374200 1.011689353

