11

N -2.464220611 2.516999452 0.628642793
C -2.048945698 0.104897412 1.228665117
O -3.094723972 -1.530554989 -0.254223571
C 0.228495913 -2.396593719 -0.024218579
C 2.392565239 -0.786034359 -0.402172062
C 4.193721733 0.525882397 -0.807101952
H -3.500436946 2.967489052 -0.917445272
H -1.770141100 3.906356202 1.714075401
H 0.301815076 -3.521532091 1.676803615
H -0.099635073 -3.520170146 -1.719849856
H 5.804972373 1.681743056 -1.143554442

