14

C -2.656469404 -1.711745766 0.266699977
C -0.157637571 -0.961882805 -0.923937407
C 0.895891263 1.535562952 -0.054786996
N -0.360702154 3.679550063 -0.434864702
C 3.241955879 1.326524169 1.146105024
C 3.563895707 -1.229997526 0.953816717
O 1.768910434 -2.680822437 -0.180920282
H -4.153510534 -0.409293703 -0.299427558
H -3.194694944 -3.608296919 -0.327774924
H -2.499079066 -1.676552867 2.320955371
H 0.440712799 5.285266962 0.191993037
H -2.029959318 3.764503079 -1.329333247
H -0.272545127 -1.022202466 -2.989086562
H 5.130872917 -2.382682103 1.606925435

