14

C -3.006777800 -2.001315888 -0.044562199
C -0.375661415 -1.070094476 0.099123902
C 0.654784433 1.351613817 -0.223012400
N -0.859761778 3.541412784 -0.568974842
C 3.475613579 1.250288932 0.345993433
C 3.709035762 -1.293640724 0.732577503
O 1.460181002 -2.634785609 0.659383100
H -4.136458931 -0.677867664 -1.145037291
H -3.077371826 -3.866303703 -0.916531551
H -3.840883768 -2.148077122 1.840176334
H 0.266046264 4.997111243 -1.088777839
H -1.670317640 4.040599436 1.088194745
H 2.052849967 1.002876426 -1.964211815
H 5.306970542 -2.477633169 1.175968404

