13

C 3.403714829 -0.064902039 -0.290429854
C 0.802943289 -0.208309670 -0.023939145
C -0.765021852 -2.248250559 -0.666305262
N -3.150418944 -1.396323585 -0.662623244
C -3.196205307 1.122038549 0.168241448
C -0.801830864 1.865620192 0.670370554
H 3.257013935 2.842362273 2.215191671
H 4.551886646 -1.766455964 -0.232628763
H 4.290535199 1.588660401 -1.086100342
H -0.298462721 -4.084140748 -1.428867049
H -4.676288016 -2.516159979 -0.868146134
H -4.997612247 2.007562529 0.529909857
H 1.700788699 3.233552872 1.961281530

