13

N -3.946353711 1.153979021 -0.791105439
C -1.497053414 0.358501814 -0.420545283
C -0.867890265 -2.336204989 0.027029301
N 1.479771887 -2.778192408 0.238042167
C 2.775193129 -0.358573113 -0.205401117
O 4.620381716 0.157182392 1.608397305
C 0.712847893 1.584966969 -0.485250035
H -5.300750906 0.107382497 0.034367958
H -4.259845499 3.022756946 -0.658229290
H -2.272052887 -3.830743479 0.191962046
H 3.796271397 -0.588525646 -1.992530155
H 3.791230477 0.309065445 3.216126460
H 1.055619778 3.572464500 -0.795911448

