13

N -4.018672452 1.046369663 -1.104456046
C -1.619445665 0.290527194 -0.364206746
C -0.858891087 -2.203512426 0.082332268
N 1.631108979 -2.344051509 0.629836155
C 2.510674992 0.186412619 0.428394884
O 4.766099764 0.849404813 1.452150195
C 0.509965838 1.821451094 -0.141710468
H -5.406375163 -0.167113602 -0.638469728
H -4.468614353 2.836863718 -0.651612811
H -1.948970021 -3.908109793 -0.190099362
H 2.824149641 -1.481323749 -1.341645417
H 5.496240220 -0.644097484 2.187021750
H 0.640292256 3.844777568 -0.344218206

