20

C -1.292672881 5.706499066 0.573931367
C -1.104876132 2.872037152 1.030906015
N -0.762585901 -2.765748713 -1.995017431
C -0.686544909 -5.467879815 -1.620931896
C 0.525946081 -1.297553024 -0.615752083
C 2.254379696 -2.105321274 1.519569066
C 0.312940612 1.502241751 -1.084462630
H -2.273520600 6.108017925 -1.197652595
H -2.324163843 6.646675608 2.092510707
H 0.580755640 6.568327298 0.459603692
H -0.171533124 2.527926075 2.845109387
H 0.264108577 -6.338548374 -3.235437250
H 0.249321035 -6.108964584 0.109923744
H -2.620455211 -6.186238282 -1.615846776
H 3.242314870 -0.485847963 2.318506966
H 1.194261614 -3.011802034 3.040949774
H 3.667098658 -3.455887692 0.860931406
H -2.998538594 2.057102323 1.187196306
H -0.666933123 1.772365591 -2.878195109
H 2.211666784 2.312639367 -1.266178883

