20

C -1.139846364 5.686347027 1.410478238
C -1.084322186 2.848027256 1.642848959
N -1.054865853 -2.911104046 -1.739876493
C -0.926102542 -5.507691355 -0.886908393
C 0.532813402 -1.335949197 -0.889466780
C 2.651634369 -1.918836222 0.913865733
C 0.257138341 1.335131342 -1.802584655
H -2.507775453 6.557173416 0.122733573
H -1.654801193 6.282033261 3.329338610
H 0.731099189 6.479158757 1.049455851
H -3.019751809 2.065508449 1.658070911
H 0.980676755 -6.303880801 -1.015228281
H -1.540875784 -5.667430434 1.083267019
H -2.185704781 -6.660819395 -2.036069766
H 3.486429256 -0.190210799 1.643532189
H 1.968383593 -3.017877446 2.517880991
H 4.103422417 -3.042233163 -0.039040778
H -1.515697754 2.348997886 -1.011954916
H -0.437230280 1.332560975 -3.757710440
H 1.956342089 2.471138634 -1.662969648

