11

N 4.297868905 0.891089337 0.148426479
C 2.126092029 -0.453453597 0.458134222
C -0.208297745 0.962879428 -0.266241983
C -2.437128552 -0.075576214 -0.099416621
C -4.641939296 -1.119876589 0.074007155
O 2.111888999 -2.595782021 1.258580181
H 5.941929613 0.042977531 0.567870959
H 4.314926423 2.641711814 -0.571031507
H -0.047726394 2.892465678 -0.943793402
H -5.729585340 -0.993621889 1.803959487
H -5.433208707 -2.167196331 -1.497200831

