8

C -2.653366322 0.174261321 1.411020438
N -2.076686519 -0.700113331 3.479255289
H -3.245115048 -2.102772827 4.089898951
C -2.976231643 1.331173783 -0.752775765
N -4.292671988 3.645805564 -1.085133237
H -5.860350155 3.436848947 -2.155661273
H -4.777462366 4.446924020 0.575756842
H -2.082319811 0.527832575 -2.409271060

