14

N 4.212215179 -2.864968859 0.123930205
C 2.551071687 -1.171070574 -0.153836500
O 2.735212326 0.754802251 -1.871932898
C 0.550501711 2.322917795 -1.700576312
C -1.318729011 0.787410156 -0.103316940
C -3.014676439 -0.952905737 -1.763643900
C 0.159434190 -1.085048596 1.329847971
H 5.652073726 -2.611513802 -1.134873002
H -0.108003366 2.724152024 -3.612939693
H 1.065674538 4.100368525 -0.783500520
H -2.552520993 1.931768090 1.085168159
H -1.883755818 -2.182634373 -2.972813488
H -4.169326975 0.253066075 -2.970259844
H -4.240885102 -2.121077716 -0.598970030

