14

N 3.514474852 -3.165620770 0.149655821
C 2.076419973 -1.310584839 -0.220773472
O 2.640879768 0.639024419 -1.840918373
C 0.718272466 2.512612566 -1.739685990
C -1.425051466 1.267736509 -0.292015258
C -2.655261453 -0.970132121 -1.703325713
C -0.420661218 -0.897955109 1.115360692
H 5.116044652 -3.004066043 -0.907141427
H 0.240129181 3.066187104 -3.668863870
H 1.419971409 4.169004758 -0.724517047
H -2.765630567 2.521005615 0.618430430
H -1.993416588 -1.147047997 -3.638651174
H -4.691088238 -1.004324618 -1.468857301
H -2.058443386 -2.761653809 -0.643629323

