11

N -1.603431540 -0.710645606 -1.193071975
C -1.150124547 1.319061319 0.867514550
O -2.365047689 3.222317996 0.736331066
C 1.202054372 0.558394284 1.831304731
C 1.312113552 -0.698140835 -1.861852324
O 2.342827061 -2.699860558 -2.187864852
H -2.072507597 -2.458827351 -0.551633506
H -2.813184580 -0.124913599 -2.562896024
H 1.428001630 -1.391556467 2.405454097
H 2.272857438 1.935544141 2.901617980
H 1.681499263 1.077732257 -2.864137474

