14

C -2.680720240 -0.978434954 -0.181661413
C -1.034066186 0.995512787 -0.862450160
C 0.880348228 0.336997014 -2.555595086
C 2.506752015 -0.235684639 -0.521626318
N 2.364373889 -2.608483532 0.195092396
O 2.710828396 1.699954895 1.217139035
C 0.144588445 2.655078981 1.165515724
H -3.896699664 -0.734210567 1.453094793
H -3.459079647 -2.165538437 -1.666268278
H -0.236872030 -2.494727820 0.445635668
H 0.551041473 -1.123299866 -3.946844151
H 3.112120980 -2.925176912 1.928452622
H -0.718516051 2.371870640 3.014542231
H 0.138949748 4.655659520 0.675829349

