19

C -4.468039139 0.671094338 0.413162029
C -1.971822536 -0.632241682 0.934749135
C -1.086545165 -2.516465983 -1.017922293
O 1.401336348 -2.689833161 -0.857545357
C 2.540341652 -0.641698269 0.614302323
C 4.611243322 0.543358187 -0.949023068
C 0.331074934 1.085627023 1.278782261
H -5.929651004 -0.710364623 -0.042042872
H -4.295982108 1.973794484 -1.179156485
H -5.098747611 1.745722607 2.056319013
H -2.184911569 -1.802928471 2.637344525
H -1.908842802 -2.114729181 -3.251860274
H -1.551137810 -0.445227846 -3.597177053
H 3.325496986 -1.536738494 2.303283238
H 6.078120058 -0.834030361 -1.391188197
H 5.473284167 2.114119556 0.074068666
H 3.832613911 1.269014795 -2.717769927
H 0.207564702 2.653624535 -0.064546279
H 0.513225862 1.871236043 3.175109425

