11

C -1.597714457 -0.038549827 -2.207387914
C 0.731681622 1.539403159 -2.118714557
C 2.811871523 1.186878643 -0.733608973
C 3.288654999 -0.890905542 1.064299026
O 1.848680612 -2.570331189 1.617377832
H 5.185561081 -0.823119101 1.955339929
H 4.347589716 2.534723458 -0.911260425
H 0.718309051 3.191851189 -3.342620021
H -3.209062985 1.079760595 -1.553548439
H -2.007387446 -0.558932346 -4.164363609
H -1.446946116 -1.729855635 -1.057869516

