15

C -4.092695803 0.003312274 0.701012180
C -0.921669206 1.306644874 -1.038006057
O -1.282280805 1.271993495 1.875502024
C 1.487318886 -0.075733363 -1.524736427
C 3.815641582 0.152307693 0.038226986
N 2.106202189 -2.003051054 0.364362195
H -5.239958926 1.318260756 -0.358353603
H -3.957671073 -1.805527960 -0.240905537
H -4.813943170 -0.202853463 2.639995282
H -0.743425457 3.310111138 -1.510900892
H -0.329496143 -0.248132152 2.355430420
H 1.792977400 -0.555728486 -3.497156646
H 3.866404784 1.451648057 1.621595304
H 5.627203985 -0.178183675 -0.859617762
H 2.802154154 -3.617082653 -0.378943208

