24

C    -1.54438  -1.38552  -1.33592
C    -1.36663  -0.64166   0.00541
N    -0.30837  -1.30524   0.88494
N     0.92452  -0.57625   0.83710
C     1.77819  -0.95278  -0.28335
N     0.46623   0.77500   0.92875
C     1.55359   1.70672   0.60471
C    -0.97354   0.83988  -0.06134
C    -0.74801   1.50878  -1.41735
H    -0.63761  -1.28593  -1.94510
H    -2.40322  -1.10356  -2.00444
H    -1.67346  -2.45690  -1.10544
H    -2.35957  -0.76180   0.58605
H    -0.58221  -1.02722   1.86807
H     1.46318  -0.59214  -1.25693
H     1.83576  -2.04869  -0.28161
H     2.81158  -0.56990  -0.08093
H     2.49044   1.56693   1.23245
H     1.89509   1.65056  -0.44778
H     1.19597   2.70520   0.80564
H    -1.66387   1.48715   0.56654
H    -0.28600   2.49897  -1.24451
H    -1.64254   1.69588  -2.05342
H    -0.04706   0.92160  -2.02500
24

C    -1.54618  -1.38616  -1.33812
C    -1.38750  -0.62953  -0.00785
N    -0.28719  -1.31374   0.90040
N     0.92082  -0.57306   0.83302
C     1.78131  -0.95291  -0.28183
N     0.47926   0.77052   0.93878
C     1.55815   1.70521   0.60575
C    -0.99427   0.83926  -0.07086
C    -0.74820   1.50992  -1.41833
H    -0.63728  -1.28549  -1.94432
H    -2.40274  -1.10713  -2.00773
H    -1.67244  -2.45674  -1.10418
H    -2.35905  -0.76307   0.58737
H    -0.58215  -1.02484   1.86664
H     1.46433  -0.59102  -1.25594
H     1.83565  -2.04866  -0.28144
H     2.81220  -0.57006  -0.07922
H     2.49323   1.56882   1.23105
H     1.89437   1.64981  -0.44795
H     1.19595   2.70422   0.80591
H    -1.66309   1.48743   0.56761
H    -0.28503   2.49842  -1.24308
H    -1.64048   1.69802  -2.05601
H    -0.04670   0.92121  -2.02412
24

C    -1.54799  -1.38680  -1.34032
C    -1.40838  -0.61741  -0.02110
N    -0.26601  -1.32224   0.91585
N     0.91712  -0.56986   0.82893
C     1.78444  -0.95304  -0.28031
N     0.49230   0.76604   0.94881
C     1.56270   1.70370   0.60679
C    -1.01501   0.83863  -0.08038
C    -0.74838   1.51106  -1.41932
H    -0.63695  -1.28506  -1.94353
H    -2.40226  -1.11071  -2.01103
H    -1.67142  -2.45658  -1.10293
H    -2.35852  -0.76435   0.58869
H    -0.58208  -1.02246   1.86521
H     1.46548  -0.58990  -1.25495
H     1.83553  -2.04862  -0.28126
H     2.81281  -0.57022  -0.07751
H     2.49602   1.57070   1.22965
H     1.89364   1.64905  -0.44811
H     1.19592   2.70323   0.80617
H    -1.66232   1.48772   0.56867
H    -0.28407   2.49786  -1.24165
H    -1.63843   1.70016  -2.05860
H    -0.04635   0.92082  -2.02325
24

C    -1.54979  -1.38744  -1.34251
C    -1.42926  -0.60529  -0.03436
N    -0.24483  -1.33074   0.93130
N     0.91342  -0.56667   0.82485
C     1.78756  -0.95318  -0.27879
N     0.50533   0.76157   0.95883
C     1.56726   1.70219   0.60783
C    -1.03574   0.83801  -0.08990
C    -0.74857   1.51220  -1.42030
H    -0.63663  -1.28463  -1.94274
H    -2.40178  -1.11429  -2.01432
H    -1.67040  -2.45642  -1.10167
H    -2.35800  -0.76562   0.59001
H    -0.58202  -1.02007   1.86379
H     1.46663  -0.58878  -1.25396
H     1.83541  -2.04858  -0.28109
H     2.81343  -0.57038  -0.07580
H     2.49880   1.57259   1.22825
H     1.89291   1.64830  -0.44827
H     1.19590   2.70225   0.80644
H    -1.66154   1.48801   0.56974
H    -0.28310   2.49731  -1.24023
H    -1.63637   1.70230  -2.06119
H    -0.04599   0.92043  -2.02237
24

C    -1.55160  -1.38809  -1.34471
C    -1.45013  -0.59317  -0.04761
N    -0.22365  -1.33924   0.94676
N     0.90972  -0.56347   0.82076
C     1.79068  -0.95331  -0.27727
N     0.51837   0.75709   0.96886
C     1.57182   1.70068   0.60887
C    -1.05648   0.83738  -0.09942
C    -0.74875   1.51334  -1.42128
H    -0.63630  -1.28419  -1.94196
H    -2.40130  -1.11786  -2.01761
H    -1.66939  -2.45626  -1.10042
H    -2.35747  -0.76689   0.59133
H    -0.58195  -1.01769   1.86236
H     1.46778  -0.58766  -1.25296
H     1.83529  -2.04854  -0.28091
H     2.81404  -0.57054  -0.07408
H     2.50159   1.57448   1.22685
H     1.89218   1.64755  -0.44844
H     1.19588   2.70126   0.80671
H    -1.66076   1.48829   0.57080
H    -0.28214   2.49675  -1.23880
H    -1.63432   1.70443  -2.06377
H    -0.04563   0.92004  -2.02150
24

C    -1.55340  -1.38873  -1.34691
C    -1.47101  -0.58105  -0.06087
N    -0.20246  -1.34774   0.96221
N     0.90602  -0.56028   0.81668
C     1.79381  -0.95345  -0.27575
N     0.53140   0.75261   0.97888
C     1.57638   1.69917   0.60991
C    -1.07721   0.83676  -0.10894
C    -0.74894   1.51447  -1.42226
H    -0.63597  -1.28376  -1.94117
H    -2.40082  -1.12144  -2.02090
H    -1.66837  -2.45610  -1.09916
H    -2.35695  -0.76817   0.59265
H    -0.58189  -1.01531   1.86094
H     1.46892  -0.58654  -1.25197
H     1.83517  -2.04850  -0.28074
H     2.81466  -0.57071  -0.07237
H     2.50437   1.57636   1.22545
H     1.89146   1.64679  -0.44860
H     1.19585   2.70028   0.80698
H    -1.65999   1.48858   0.57186
H    -0.28117   2.49620  -1.23737
H    -1.63226   1.70657  -2.06636
H    -0.04528   0.91965  -2.02062
24

C    -1.55521  -1.38937  -1.34910
C    -1.49189  -0.56893  -0.07412
N    -0.18128  -1.35624   0.97767
N     0.90232  -0.55708   0.81259
C     1.79693  -0.95358  -0.27423
N     0.54443   0.74813   0.98891
C     1.58093   1.69766   0.61095
C    -1.09795   0.83613  -0.11846
C    -0.74912   1.51561  -1.42325
H    -0.63564  -1.28332  -1.94039
H    -2.40034  -1.12502  -2.02420
H    -1.66735  -2.45594  -1.09791
H    -2.35642  -0.76944   0.59398
H    -0.58182  -1.01293   1.85951
H     1.47007  -0.58543  -1.25098
H     1.83505  -2.04846  -0.28056
H     2.81527  -0.57087  -0.07066
H     2.50716   1.57825   1.22405
H     1.89073   1.64604  -0.44876
H     1.19583   2.69929   0.80725
H    -1.65921   1.48886   0.57293
H    -0.28020   2.49564  -1.23594
H    -1.63021   1.70871  -2.06895
H    -0.04492   0.91926  -2.01975
24

C    -1.55701  -1.39001  -1.35130
C    -1.51277  -0.55681  -0.08738
N    -0.16010  -1.36475   0.99312
N     0.89862  -0.55389   0.80851
C     1.80006  -0.95371  -0.27271
N     0.55747   0.74366   0.99893
C     1.58549   1.69615   0.61199
C    -1.11868   0.83551  -0.12798
C    -0.74931   1.51675  -1.42423
H    -0.63531  -1.28289  -1.93960
H    -2.39986  -1.12859  -2.02749
H    -1.66633  -2.45578  -1.09665
H    -2.35590  -0.77071   0.59530
H    -0.58175  -1.01055   1.85808
H     1.47122  -0.58431  -1.24999
H     1.83493  -2.04843  -0.28039
H     2.81589  -0.57103  -0.06895
H     2.50995   1.58013   1.22265
H     1.89000   1.64529  -0.44893
H     1.19581   2.69831   0.80752
H    -1.65844   1.48915   0.57399
H    -0.27924   2.49508  -1.23452
H    -1.62816   1.71085  -2.07153
H    -0.04456   0.91886  -2.01888
24

C    -1.55882  -1.39066  -1.35350
C    -1.53364  -0.54469  -0.10063
N    -0.13892  -1.37325   1.00858
N     0.89492  -0.55069   0.80442
C     1.80318  -0.95385  -0.27119
N     0.57050   0.73918   1.00896
C     1.59005   1.69464   0.61303
C    -1.13942   0.83489  -0.13750
C    -0.74949   1.51789  -1.42521
H    -0.63498  -1.28245  -1.93881
H    -2.39938  -1.13217  -2.03078
H    -1.66532  -2.45562  -1.09540
H    -2.35537  -0.77199   0.59662
H    -0.58169  -1.00816   1.85666
H     1.47237  -0.58319  -1.24899
H     1.83482  -2.04839  -0.28021
H     2.81650  -0.57119  -0.06724
H     2.51273   1.58202   1.22125
H     1.88928   1.64453  -0.44909
H     1.19578   2.69733   0.80779
H    -1.65766   1.48944   0.57506
H    -0.27827   2.49453  -1.23309
H    -1.62610   1.71298  -2.07412
H    -0.04421   0.91847  -2.01800
24

C    -1.56062  -1.39130  -1.35569
C    -1.55452  -0.53257  -0.11389
N    -0.11774  -1.38175   1.02403
N     0.89122  -0.54750   0.80034
C     1.80630  -0.95398  -0.26967
N     0.58354   0.73470   1.01898
C     1.59460   1.69313   0.61407
C    -1.16015   0.83426  -0.14702
C    -0.74968   1.51903  -1.42620
H    -0.63466  -1.28202  -1.93803
H    -2.39890  -1.13575  -2.03408
H    -1.66430  -2.45546  -1.09414
H    -2.35485  -0.77326   0.59794
H    -0.58162  -1.00578   1.85523
H     1.47352  -0.58207  -1.24800
H     1.83470  -2.04835  -0.28004
H     2.81711  -0.57136  -0.06553
H     2.51552   1.58390   1.21985
H     1.88855   1.64378  -0.44926
H     1.19576   2.69634   0.80805
H    -1.65689   1.48972   0.57612
H    -0.27731   2.49397  -1.23166
H    -1.62405   1.71512  -2.07671
H    -0.04385   0.91808  -2.01713
24

C    -1.56243  -1.39194  -1.35789
C    -1.57540  -0.52045  -0.12714
N    -0.09656  -1.39025   1.03948
N     0.88751  -0.54430   0.79625
C     1.80943  -0.95411  -0.26815
N     0.59657   0.73022   1.02901
C     1.59916   1.69162   0.61511
C    -1.18089   0.83364  -0.15654
C    -0.74986   1.52017  -1.42718
H    -0.63433  -1.28159  -1.93724
H    -2.39842  -1.13932  -2.03737
H    -1.66328  -2.45530  -1.09289
H    -2.35432  -0.77454   0.59926
H    -0.58156  -1.00340   1.85381
H     1.47467  -0.58095  -1.24701
H     1.83458  -2.04831  -0.27986
H     2.81773  -0.57152  -0.06382
H     2.51830   1.58579   1.21845
H     1.88782   1.64302  -0.44942
H     1.19574   2.69536   0.80832
H    -1.65611   1.49001   0.57719
H    -0.27634   2.49342  -1.23023
H    -1.62199   1.71726  -2.07930
H    -0.04349   0.91769  -2.01625
24

C    -1.56423  -1.39259  -1.36009
C    -1.59628  -0.50833  -0.14040
N    -0.07538  -1.39875   1.05494
N     0.88381  -0.54111   0.79217
C     1.81255  -0.95425  -0.26663
N     0.60961   0.72575   1.03903
C     1.60372   1.69011   0.61615
C    -1.20162   0.83301  -0.16606
C    -0.75005   1.52131  -1.42816
H    -0.63400  -1.28115  -1.93645
H    -2.39794  -1.14290  -2.04066
H    -1.66226  -2.45514  -1.09163
H    -2.35380  -0.77581   0.60058
H    -0.58149  -1.00102   1.85238
H     1.47582  -0.57983  -1.24602
H     1.83446  -2.04827  -0.27968
H     2.81834  -0.57168  -0.06211
H     2.52109   1.58767   1.21704
H     1.88709   1.64227  -0.44958
H     1.19571   2.69437   0.80859
H    -1.65533   1.49030   0.57825
H    -0.27538   2.49286  -1.22881
H    -1.61994   1.71940  -2.08188
H    -0.04314   0.91730  -2.01538
24

C    -1.56604  -1.39323  -1.36229
C    -1.61715  -0.49620  -0.15365
N    -0.05420  -1.40725   1.07039
N     0.88011  -0.53791   0.78808
C     1.81568  -0.95438  -0.26511
N     0.62264   0.72127   1.04906
C     1.60828   1.68860   0.61719
C    -1.22236   0.83239  -0.17558
C    -0.75023   1.52245  -1.42915
H    -0.63367  -1.28072  -1.93567
H    -2.39746  -1.14648  -2.04395
H    -1.66125  -2.45498  -1.09037
H    -2.35327  -0.77708   0.60191
H    -0.58143  -0.99864   1.85095
H     1.47696  -0.57871  -1.24503
H     1.83434  -2.04823  -0.27951
H     2.81896  -0.57184  -0.06040
H     2.52387   1.58956   1.21564
H     1.88637   1.64152  -0.44975
H     1.19569   2.69339   0.80886
H    -1.65456   1.49058   0.57932
H    -0.27441   2.49231  -1.22738
H    -1.61788   1.72154  -2.08447
H    -0.04278   0.91691  -2.01450
24

C    -1.56784  -1.39387  -1.36448
C    -1.63803  -0.48408  -0.16691
N    -0.03302  -1.41575   1.08585
N     0.87641  -0.53472   0.78400
C     1.81880  -0.95452  -0.26359
N     0.63567   0.71679   1.05909
C     1.61283   1.68709   0.61823
C    -1.24309   0.83176  -0.18510
C    -0.75042   1.52359  -1.43013
H    -0.63334  -1.28028  -1.93488
H    -2.39699  -1.15005  -2.04725
H    -1.66023  -2.45482  -1.08912
H    -2.35275  -0.77836   0.60323
H    -0.58136  -0.99625   1.84953
H     1.47811  -0.57759  -1.24403
H     1.83422  -2.04820  -0.27933
H     2.81957  -0.57200  -0.05869
H     2.52666   1.59144   1.21424
H     1.88564   1.64076  -0.44991
H     1.19567   2.69240   0.80913
H    -1.65378   1.49087   0.58038
H    -0.27345   2.49175  -1.22595
H    -1.61583   1.72367  -2.08706
H    -0.04242   0.91652  -2.01363
24

C    -1.56965  -1.39451  -1.36668
C    -1.65891  -0.47196  -0.18016
N    -0.01183  -1.42425   1.10130
N     0.87271  -0.53152   0.77991
C     1.82193  -0.95465  -0.26207
N     0.64871   0.71232   1.06911
C     1.61739   1.68558   0.61927
C    -1.26383   0.83114  -0.19462
C    -0.75060   1.52472  -1.43111
H    -0.63301  -1.27985  -1.93409
H    -2.39651  -1.15363  -2.05054
H    -1.65921  -2.45466  -1.08786
H    -2.35222  -0.77963   0.60455
H    -0.58130  -0.99387   1.84810
H     1.47926  -0.57647  -1.24304
H     1.83411  -2.04816  -0.27916
H     2.82019  -0.57217  -0.05698
H     2.52945   1.59333   1.21284
H     1.88491   1.64001  -0.45008
H     1.19564   2.69142   0.80940
H    -1.65301   1.49116   0.58145
H    -0.27248   2.49119  -1.22452
H    -1.61378   1.72581  -2.08965
H    -0.04207   0.91613  -2.01275
24

C    -1.57145  -1.39516  -1.36888
C    -1.67978  -0.45984  -0.19342
N     0.00935  -1.43275   1.11676
N     0.86901  -0.52833   0.77583
C     1.82505  -0.95478  -0.26055
N     0.66174   0.70784   1.07914
C     1.62195   1.68407   0.62031
C    -1.28456   0.83052  -0.20414
C    -0.75079   1.52586  -1.43210
H    -0.63268  -1.27941  -1.93331
H    -2.39603  -1.15721  -2.05383
H    -1.65819  -2.45450  -1.08661
H    -2.35170  -0.78090   0.60587
H    -0.58123  -0.99149   1.84667
H     1.48041  -0.57535  -1.24205
H     1.83399  -2.04812  -0.27898
H     2.82080  -0.57233  -0.05526
H     2.53223   1.59521   1.21144
H     1.88419   1.63925  -0.45024
H     1.19562   2.69043   0.80967
H    -1.65223   1.49144   0.58251
H    -0.27152   2.49064  -1.22310
H    -1.61172   1.72795  -2.09223
H    -0.04171   0.91574  -2.01188
24

C    -1.57326  -1.39580  -1.37107
C    -1.70066  -0.44772  -0.20667
N     0.03053  -1.44126   1.13221
N     0.86531  -0.52513   0.77174
C     1.82817  -0.95492  -0.25903
N     0.67478   0.70336   1.08916
C     1.62650   1.68256   0.62135
C    -1.30530   0.82989  -0.21366
C    -0.75097   1.52700  -1.43308
H    -0.63236  -1.27898  -1.93252
H    -2.39555  -1.16078  -2.05712
H    -1.65718  -2.45434  -1.08535
H    -2.35117  -0.78218   0.60719
H    -0.58116  -0.98911   1.84525
H     1.48156  -0.57423  -1.24106
H     1.83387  -2.04808  -0.27881
H     2.82142  -0.57249  -0.05355
H     2.53502   1.59710   1.21004
H     1.88346   1.63850  -0.45040
H     1.19560   2.68945   0.80993
H    -1.65146   1.49173   0.58357
H    -0.27055   2.49008  -1.22167
H    -1.60967   1.73009  -2.09482
H    -0.04135   0.91535  -2.01100
24

C    -1.57506  -1.39644  -1.37327
C    -1.72154  -0.43560  -0.21993
N     0.05171  -1.44976   1.14766
N     0.86161  -0.52194   0.76766
C     1.83130  -0.95505  -0.25751
N     0.68781   0.69888   1.09919
C     1.63106   1.68105   0.62239
C    -1.32603   0.82927  -0.22318
C    -0.75116   1.52814  -1.43406
H    -0.63203  -1.27854  -1.93174
H    -2.39507  -1.16436  -2.06042
H    -1.65616  -2.45418  -1.08410
H    -2.35065  -0.78345   0.60852
H    -0.58110  -0.98673   1.84382
H     1.48271  -0.57311  -1.24006
H     1.83375  -2.04804  -0.27863
H     2.82203  -0.57265  -0.05184
H     2.53780   1.59898   1.20864
H     1.88273   1.63775  -0.45057
H     1.19557   2.68847   0.81020
H    -1.65068   1.49202   0.58464
H    -0.26958   2.48953  -1.22024
H    -1.60761   1.73222  -2.09741
H    -0.04100   0.91495  -2.01013
24

C    -1.57687  -1.39708  -1.37547
C    -1.74242  -0.42348  -0.23318
N     0.07289  -1.45826   1.16312
N     0.85791  -0.51874   0.76357
C     1.83442  -0.95518  -0.25600
N     0.70084   0.69441   1.10921
C     1.63562   1.67954   0.62343
C    -1.34677   0.82864  -0.23270
C    -0.75134   1.52928  -1.43505
H    -0.63170  -1.27811  -1.93095
H    -2.39459  -1.16794  -2.06371
H    -1.65514  -2.45402  -1.08284
H    -2.35012  -0.78473   0.60984
H    -0.58103  -0.98434   1.84240
H     1.48385  -0.57199  -1.23907
H     1.83363  -2.04800  -0.27846
H     2.82265  -0.57281  -0.05013
H     2.54059   1.60087   1.20724
H     1.88200   1.63699  -0.45073
H     1.19555   2.68748   0.81047
H    -1.64990   1.49230   0.58570
H    -0.26862   2.48897  -1.21881
H    -1.60556   1.73436  -2.10000
H    -0.04064   0.91456  -2.00925
24

C    -1.57867  -1.39773  -1.37766
C    -1.76329  -0.41136  -0.24644
N     0.09407  -1.46676   1.17857
N     0.85420  -0.51555   0.75949
C     1.83755  -0.95532  -0.25448
N     0.71388   0.68993   1.11924
C     1.64017   1.67803   0.62447
C    -1.36750   0.82802  -0.24222
C    -0.75153   1.53042  -1.43603
H    -0.63137  -1.27768  -1.93016
H    -2.39411  -1.17151  -2.06700
H    -1.65412  -2.45386  -1.08159
H    -2.34960  -0.78600   0.61116
H    -0.58097  -0.98196   1.84097
H     1.48500  -0.57087  -1.23808
H     1.83351  -2.04796  -0.27828
H     2.82326  -0.57298  -0.04842
H     2.54338   1.60275   1.20584
H     1.88128   1.63624  -0.45089
H     1.19553   2.68650   0.81074
H    -1.64913   1.49259   0.58677
H    -0.26765   2.48841  -1.21739
H    -1.60350   1.73650  -2.10258
H    -0.04029   0.91417  -2.00838
24

C    -1.58048  -1.39837  -1.37986
C    -1.78417  -0.39924  -0.25969
N     0.11525  -1.47526   1.19403
N     0.85050  -0.51236   0.75540
C     1.84067  -0.95545  -0.25296
N     0.72691   0.68545   1.12926
C     1.64473   1.67652   0.62551
C    -1.38824   0.82740  -0.25174
C    -0.75172   1.53156  -1.43701
H    -0.63104  -1.27724  -1.92938
H    -2.39363  -1.17509  -2.07029
H    -1.65311  -2.45370  -1.08033
H    -2.34907  -0.78727   0.61248
H    -0.58090  -0.97958   1.83954
H     1.48615  -0.56975  -1.23709
H     1.83339  -2.04793  -0.27811
H     2.82388  -0.57314  -0.04671
H     2.54616   1.60464   1.20444
H     1.88055   1.63549  -0.45106
H     1.19550   2.68551   0.81101
H    -1.64835   1.49287   0.58783
H    -0.26669   2.48786  -1.21596
H    -1.60145   1.73864  -2.10517
H    -0.03993   0.91378  -2.00751
24

C    -1.57867  -1.39773  -1.37766
C    -1.76329  -0.41136  -0.24644
N     0.09407  -1.46676   1.17857
N     0.85420  -0.51555   0.75949
C     1.83755  -0.95532  -0.25448
N     0.71388   0.68993   1.11924
C     1.64017   1.67803   0.62447
C    -1.36750   0.82802  -0.24222
C    -0.75153   1.53042  -1.43603
H    -0.63137  -1.27768  -1.93016
H    -2.39411  -1.17151  -2.06700
H    -1.65412  -2.45386  -1.08159
H    -2.34960  -0.78600   0.61116
H    -0.58097  -0.98196   1.84097
H     1.48500  -0.57087  -1.23808
H     1.83351  -2.04796  -0.27828
H     2.82326  -0.57298  -0.04842
H     2.54338   1.60275   1.20584
H     1.88128   1.63624  -0.45089
H     1.19553   2.68650   0.81074
H    -1.64913   1.49259   0.58677
H    -0.26765   2.48841  -1.21739
H    -1.60350   1.73650  -2.10258
H    -0.04029   0.91417  -2.00838
24

C    -1.57687  -1.39708  -1.37547
C    -1.74242  -0.42348  -0.23318
N     0.07289  -1.45826   1.16312
N     0.85791  -0.51874   0.76357
C     1.83442  -0.95518  -0.25600
N     0.70084   0.69441   1.10921
C     1.63562   1.67954   0.62343
C    -1.34677   0.82864  -0.23270
C    -0.75134   1.52928  -1.43505
H    -0.63170  -1.27811  -1.93095
H    -2.39459  -1.16794  -2.06371
H    -1.65514  -2.45402  -1.08284
H    -2.35012  -0.78473   0.60984
H    -0.58103  -0.98434   1.84240
H     1.48385  -0.57199  -1.23907
H     1.83363  -2.04800  -0.27846
H     2.82265  -0.57281  -0.05013
H     2.54059   1.60087   1.20724
H     1.88200   1.63699  -0.45073
H     1.19555   2.68748   0.81047
H    -1.64990   1.49230   0.58570
H    -0.26862   2.48897  -1.21881
H    -1.60556   1.73436  -2.10000
H    -0.04064   0.91456  -2.00925
24

C    -1.57506  -1.39644  -1.37327
C    -1.72154  -0.43560  -0.21993
N     0.05171  -1.44976   1.14766
N     0.86161  -0.52194   0.76766
C     1.83130  -0.95505  -0.25751
N     0.68781   0.69888   1.09919
C     1.63106   1.68105   0.62239
C    -1.32603   0.82927  -0.22318
C    -0.75116   1.52814  -1.43406
H    -0.63203  -1.27854  -1.93174
H    -2.39507  -1.16436  -2.06042
H    -1.65616  -2.45418  -1.08410
H    -2.35065  -0.78345   0.60852
H    -0.58110  -0.98673   1.84382
H     1.48271  -0.57311  -1.24006
H     1.83375  -2.04804  -0.27863
H     2.82203  -0.57265  -0.05184
H     2.53780   1.59898   1.20864
H     1.88273   1.63775  -0.45057
H     1.19557   2.68847   0.81020
H    -1.65068   1.49202   0.58464
H    -0.26958   2.48953  -1.22024
H    -1.60761   1.73222  -2.09741
H    -0.04100   0.91495  -2.01013
24

C    -1.57326  -1.39580  -1.37107
C    -1.70066  -0.44772  -0.20667
N     0.03053  -1.44126   1.13221
N     0.86531  -0.52513   0.77174
C     1.82817  -0.95492  -0.25903
N     0.67478   0.70336   1.08916
C     1.62650   1.68256   0.62135
C    -1.30530   0.82989  -0.21366
C    -0.75097   1.52700  -1.43308
H    -0.63236  -1.27898  -1.93252
H    -2.39555  -1.16078  -2.05712
H    -1.65718  -2.45434  -1.08535
H    -2.35117  -0.78218   0.60719
H    -0.58116  -0.98911   1.84525
H     1.48156  -0.57423  -1.24106
H     1.83387  -2.04808  -0.27881
H     2.82142  -0.57249  -0.05355
H     2.53502   1.59710   1.21004
H     1.88346   1.63850  -0.45040
H     1.19560   2.68945   0.80993
H    -1.65146   1.49173   0.58357
H    -0.27055   2.49008  -1.22167
H    -1.60967   1.73009  -2.09482
H    -0.04135   0.91535  -2.01100
24

C    -1.57145  -1.39516  -1.36888
C    -1.67978  -0.45984  -0.19342
N     0.00935  -1.43275   1.11676
N     0.86901  -0.52833   0.77583
C     1.82505  -0.95478  -0.26055
N     0.66174   0.70784   1.07914
C     1.62195   1.68407   0.62031
C    -1.28456   0.83052  -0.20414
C    -0.75079   1.52586  -1.43210
H    -0.63268  -1.27941  -1.93331
H    -2.39603  -1.15721  -2.05383
H    -1.65819  -2.45450  -1.08661
H    -2.35170  -0.78090   0.60587
H    -0.58123  -0.99149   1.84667
H     1.48041  -0.57535  -1.24205
H     1.83399  -2.04812  -0.27898
H     2.82080  -0.57233  -0.05526
H     2.53223   1.59521   1.21144
H     1.88419   1.63925  -0.45024
H     1.19562   2.69043   0.80967
H    -1.65223   1.49144   0.58251
H    -0.27152   2.49064  -1.22310
H    -1.61172   1.72795  -2.09223
H    -0.04171   0.91574  -2.01188
24

C    -1.56965  -1.39451  -1.36668
C    -1.65891  -0.47196  -0.18016
N    -0.01183  -1.42425   1.10130
N     0.87271  -0.53152   0.77991
C     1.82193  -0.95465  -0.26207
N     0.64871   0.71232   1.06911
C     1.61739   1.68558   0.61927
C    -1.26383   0.83114  -0.19462
C    -0.75060   1.52472  -1.43111
H    -0.63301  -1.27985  -1.93409
H    -2.39651  -1.15363  -2.05054
H    -1.65921  -2.45466  -1.08786
H    -2.35222  -0.77963   0.60455
H    -0.58130  -0.99387   1.84810
H     1.47926  -0.57647  -1.24304
H     1.83411  -2.04816  -0.27916
H     2.82019  -0.57217  -0.05698
H     2.52945   1.59333   1.21284
H     1.88491   1.64001  -0.45008
H     1.19564   2.69142   0.80940
H    -1.65301   1.49116   0.58145
H    -0.27248   2.49119  -1.22452
H    -1.61378   1.72581  -2.08965
H    -0.04207   0.91613  -2.01275
24

C    -1.56784  -1.39387  -1.36448
C    -1.63803  -0.48408  -0.16691
N    -0.03302  -1.41575   1.08585
N     0.87641  -0.53472   0.78400
C     1.81880  -0.95452  -0.26359
N     0.63567   0.71679   1.05909
C     1.61283   1.68709   0.61823
C    -1.24309   0.83176  -0.18510
C    -0.75042   1.52359  -1.43013
H    -0.63334  -1.28028  -1.93488
H    -2.39699  -1.15005  -2.04725
H    -1.66023  -2.45482  -1.08912
H    -2.35275  -0.77836   0.60323
H    -0.58136  -0.99625   1.84953
H     1.47811  -0.57759  -1.24403
H     1.83422  -2.04820  -0.27933
H     2.81957  -0.57200  -0.05869
H     2.52666   1.59144   1.21424
H     1.88564   1.64076  -0.44991
H     1.19567   2.69240   0.80913
H    -1.65378   1.49087   0.58038
H    -0.27345   2.49175  -1.22595
H    -1.61583   1.72367  -2.08706
H    -0.04242   0.91652  -2.01363
24

C    -1.56604  -1.39323  -1.36229
C    -1.61715  -0.49620  -0.15365
N    -0.05420  -1.40725   1.07039
N     0.88011  -0.53791   0.78808
C     1.81568  -0.95438  -0.26511
N     0.62264   0.72127   1.04906
C     1.60828   1.68860   0.61719
C    -1.22236   0.83239  -0.17558
C    -0.75023   1.52245  -1.42915
H    -0.63367  -1.28072  -1.93567
H    -2.39746  -1.14648  -2.04395
H    -1.66125  -2.45498  -1.09037
H    -2.35327  -0.77708   0.60191
H    -0.58143  -0.99864   1.85095
H     1.47696  -0.57871  -1.24503
H     1.83434  -2.04823  -0.27951
H     2.81896  -0.57184  -0.06040
H     2.52387   1.58956   1.21564
H     1.88637   1.64152  -0.44975
H     1.19569   2.69339   0.80886
H    -1.65456   1.49058   0.57932
H    -0.27441   2.49231  -1.22738
H    -1.61788   1.72154  -2.08447
H    -0.04278   0.91691  -2.01450
24

C    -1.56423  -1.39259  -1.36009
C    -1.59628  -0.50833  -0.14040
N    -0.07538  -1.39875   1.05494
N     0.88381  -0.54111   0.79217
C     1.81255  -0.95425  -0.26663
N     0.60961   0.72575   1.03903
C     1.60372   1.69011   0.61615
C    -1.20162   0.83301  -0.16606
C    -0.75005   1.52131  -1.42816
H    -0.63400  -1.28115  -1.93645
H    -2.39794  -1.14290  -2.04066
H    -1.66226  -2.45514  -1.09163
H    -2.35380  -0.77581   0.60058
H    -0.58149  -1.00102   1.85238
H     1.47582  -0.57983  -1.24602
H     1.83446  -2.04827  -0.27968
H     2.81834  -0.57168  -0.06211
H     2.52109   1.58767   1.21704
H     1.88709   1.64227  -0.44958
H     1.19571   2.69437   0.80859
H    -1.65533   1.49030   0.57825
H    -0.27538   2.49286  -1.22881
H    -1.61994   1.71940  -2.08188
H    -0.04314   0.91730  -2.01538
24

C    -1.56243  -1.39194  -1.35789
C    -1.57540  -0.52045  -0.12714
N    -0.09656  -1.39025   1.03948
N     0.88751  -0.54430   0.79625
C     1.80943  -0.95411  -0.26815
N     0.59657   0.73022   1.02901
C     1.59916   1.69162   0.61511
C    -1.18089   0.83364  -0.15654
C    -0.74986   1.52017  -1.42718
H    -0.63433  -1.28159  -1.93724
H    -2.39842  -1.13932  -2.03737
H    -1.66328  -2.45530  -1.09289
H    -2.35432  -0.77454   0.59926
H    -0.58156  -1.00340   1.85381
H     1.47467  -0.58095  -1.24701
H     1.83458  -2.04831  -0.27986
H     2.81773  -0.57152  -0.06382
H     2.51830   1.58579   1.21845
H     1.88782   1.64302  -0.44942
H     1.19574   2.69536   0.80832
H    -1.65611   1.49001   0.57719
H    -0.27634   2.49342  -1.23023
H    -1.62199   1.71726  -2.07930
H    -0.04349   0.91769  -2.01625
24

C    -1.56062  -1.39130  -1.35569
C    -1.55452  -0.53257  -0.11389
N    -0.11774  -1.38175   1.02403
N     0.89122  -0.54750   0.80034
C     1.80630  -0.95398  -0.26967
N     0.58354   0.73470   1.01898
C     1.59460   1.69313   0.61407
C    -1.16015   0.83426  -0.14702
C    -0.74968   1.51903  -1.42620
H    -0.63466  -1.28202  -1.93803
H    -2.39890  -1.13575  -2.03408
H    -1.66430  -2.45546  -1.09414
H    -2.35485  -0.77326   0.59794
H    -0.58162  -1.00578   1.85523
H     1.47352  -0.58207  -1.24800
H     1.83470  -2.04835  -0.28004
H     2.81711  -0.57136  -0.06553
H     2.51552   1.58390   1.21985
H     1.88855   1.64378  -0.44926
H     1.19576   2.69634   0.80805
H    -1.65689   1.48972   0.57612
H    -0.27731   2.49397  -1.23166
H    -1.62405   1.71512  -2.07671
H    -0.04385   0.91808  -2.01713
24

C    -1.55882  -1.39066  -1.35350
C    -1.53364  -0.54469  -0.10063
N    -0.13892  -1.37325   1.00858
N     0.89492  -0.55069   0.80442
C     1.80318  -0.95385  -0.27119
N     0.57050   0.73918   1.00896
C     1.59005   1.69464   0.61303
C    -1.13942   0.83489  -0.13750
C    -0.74949   1.51789  -1.42521
H    -0.63498  -1.28245  -1.93881
H    -2.39938  -1.13217  -2.03078
H    -1.66532  -2.45562  -1.09540
H    -2.35537  -0.77199   0.59662
H    -0.58169  -1.00816   1.85666
H     1.47237  -0.58319  -1.24899
H     1.83482  -2.04839  -0.28021
H     2.81650  -0.57119  -0.06724
H     2.51273   1.58202   1.22125
H     1.88928   1.64453  -0.44909
H     1.19578   2.69733   0.80779
H    -1.65766   1.48944   0.57506
H    -0.27827   2.49453  -1.23309
H    -1.62610   1.71298  -2.07412
H    -0.04421   0.91847  -2.01800
24

C    -1.55701  -1.39001  -1.35130
C    -1.51277  -0.55681  -0.08738
N    -0.16010  -1.36475   0.99312
N     0.89862  -0.55389   0.80851
C     1.80006  -0.95371  -0.27271
N     0.55747   0.74366   0.99893
C     1.58549   1.69615   0.61199
C    -1.11868   0.83551  -0.12798
C    -0.74931   1.51675  -1.42423
H    -0.63531  -1.28289  -1.93960
H    -2.39986  -1.12859  -2.02749
H    -1.66633  -2.45578  -1.09665
H    -2.35590  -0.77071   0.59530
H    -0.58175  -1.01055   1.85808
H     1.47122  -0.58431  -1.24999
H     1.83493  -2.04843  -0.28039
H     2.81589  -0.57103  -0.06895
H     2.50995   1.58013   1.22265
H     1.89000   1.64529  -0.44893
H     1.19581   2.69831   0.80752
H    -1.65844   1.48915   0.57399
H    -0.27924   2.49508  -1.23452
H    -1.62816   1.71085  -2.07153
H    -0.04456   0.91886  -2.01888
24

C    -1.55521  -1.38937  -1.34910
C    -1.49189  -0.56893  -0.07412
N    -0.18128  -1.35624   0.97767
N     0.90232  -0.55708   0.81259
C     1.79693  -0.95358  -0.27423
N     0.54443   0.74813   0.98891
C     1.58093   1.69766   0.61095
C    -1.09795   0.83613  -0.11846
C    -0.74912   1.51561  -1.42325
H    -0.63564  -1.28332  -1.94039
H    -2.40034  -1.12502  -2.02420
H    -1.66735  -2.45594  -1.09791
H    -2.35642  -0.76944   0.59398
H    -0.58182  -1.01293   1.85951
H     1.47007  -0.58543  -1.25098
H     1.83505  -2.04846  -0.28056
H     2.81527  -0.57087  -0.07066
H     2.50716   1.57825   1.22405
H     1.89073   1.64604  -0.44876
H     1.19583   2.69929   0.80725
H    -1.65921   1.48886   0.57293
H    -0.28020   2.49564  -1.23594
H    -1.63021   1.70871  -2.06895
H    -0.04492   0.91926  -2.01975
24

C    -1.55340  -1.38873  -1.34691
C    -1.47101  -0.58105  -0.06087
N    -0.20246  -1.34774   0.96221
N     0.90602  -0.56028   0.81668
C     1.79381  -0.95345  -0.27575
N     0.53140   0.75261   0.97888
C     1.57638   1.69917   0.60991
C    -1.07721   0.83676  -0.10894
C    -0.74894   1.51447  -1.42226
H    -0.63597  -1.28376  -1.94117
H    -2.40082  -1.12144  -2.02090
H    -1.66837  -2.45610  -1.09916
H    -2.35695  -0.76817   0.59265
H    -0.58189  -1.01531   1.86094
H     1.46892  -0.58654  -1.25197
H     1.83517  -2.04850  -0.28074
H     2.81466  -0.57071  -0.07237
H     2.50437   1.57636   1.22545
H     1.89146   1.64679  -0.44860
H     1.19585   2.70028   0.80698
H    -1.65999   1.48858   0.57186
H    -0.28117   2.49620  -1.23737
H    -1.63226   1.70657  -2.06636
H    -0.04528   0.91965  -2.02062
24

C    -1.55160  -1.38809  -1.34471
C    -1.45013  -0.59317  -0.04761
N    -0.22365  -1.33924   0.94676
N     0.90972  -0.56347   0.82076
C     1.79068  -0.95331  -0.27727
N     0.51837   0.75709   0.96886
C     1.57182   1.70068   0.60887
C    -1.05648   0.83738  -0.09942
C    -0.74875   1.51334  -1.42128
H    -0.63630  -1.28419  -1.94196
H    -2.40130  -1.11786  -2.01761
H    -1.66939  -2.45626  -1.10042
H    -2.35747  -0.76689   0.59133
H    -0.58195  -1.01769   1.86236
H     1.46778  -0.58766  -1.25296
H     1.83529  -2.04854  -0.28091
H     2.81404  -0.57054  -0.07408
H     2.50159   1.57448   1.22685
H     1.89218   1.64755  -0.44844
H     1.19588   2.70126   0.80671
H    -1.66076   1.48829   0.57080
H    -0.28214   2.49675  -1.23880
H    -1.63432   1.70443  -2.06377
H    -0.04563   0.92004  -2.02150
24

C    -1.54979  -1.38744  -1.34251
C    -1.42926  -0.60529  -0.03436
N    -0.24483  -1.33074   0.93130
N     0.91342  -0.56667   0.82485
C     1.78756  -0.95318  -0.27879
N     0.50533   0.76157   0.95883
C     1.56726   1.70219   0.60783
C    -1.03574   0.83801  -0.08990
C    -0.74857   1.51220  -1.42030
H    -0.63663  -1.28463  -1.94274
H    -2.40178  -1.11429  -2.01432
H    -1.67040  -2.45642  -1.10167
H    -2.35800  -0.76562   0.59001
H    -0.58202  -1.02007   1.86379
H     1.46663  -0.58878  -1.25396
H     1.83541  -2.04858  -0.28109
H     2.81343  -0.57038  -0.07580
H     2.49880   1.57259   1.22825
H     1.89291   1.64830  -0.44827
H     1.19590   2.70225   0.80644
H    -1.66154   1.48801   0.56974
H    -0.28310   2.49731  -1.24023
H    -1.63637   1.70230  -2.06119
H    -0.04599   0.92043  -2.02237
24

C    -1.54799  -1.38680  -1.34032
C    -1.40838  -0.61741  -0.02110
N    -0.26601  -1.32224   0.91585
N     0.91712  -0.56986   0.82893
C     1.78444  -0.95304  -0.28031
N     0.49230   0.76604   0.94881
C     1.56270   1.70370   0.60679
C    -1.01501   0.83863  -0.08038
C    -0.74838   1.51106  -1.41932
H    -0.63695  -1.28506  -1.94353
H    -2.40226  -1.11071  -2.01103
H    -1.67142  -2.45658  -1.10293
H    -2.35852  -0.76435   0.58869
H    -0.58208  -1.02246   1.86521
H     1.46548  -0.58990  -1.25495
H     1.83553  -2.04862  -0.28126
H     2.81281  -0.57022  -0.07751
H     2.49602   1.57070   1.22965
H     1.89364   1.64905  -0.44811
H     1.19592   2.70323   0.80617
H    -1.66232   1.48772   0.56867
H    -0.28407   2.49786  -1.24165
H    -1.63843   1.70016  -2.05860
H    -0.04635   0.92082  -2.02325
24

C    -1.54618  -1.38616  -1.33812
C    -1.38750  -0.62953  -0.00785
N    -0.28719  -1.31374   0.90040
N     0.92082  -0.57306   0.83302
C     1.78131  -0.95291  -0.28183
N     0.47926   0.77052   0.93878
C     1.55815   1.70521   0.60575
C    -0.99427   0.83926  -0.07086
C    -0.74820   1.50992  -1.41833
H    -0.63728  -1.28549  -1.94432
H    -2.40274  -1.10713  -2.00773
H    -1.67244  -2.45674  -1.10418
H    -2.35905  -0.76307   0.58737
H    -0.58215  -1.02484   1.86664
H     1.46433  -0.59102  -1.25594
H     1.83565  -2.04866  -0.28144
H     2.81220  -0.57006  -0.07922
H     2.49323   1.56882   1.23105
H     1.89437   1.64981  -0.44795
H     1.19595   2.70422   0.80591
H    -1.66309   1.48743   0.56761
H    -0.28503   2.49842  -1.24308
H    -1.64048   1.69802  -2.05601
H    -0.04670   0.92121  -2.02412
