10

O -0.485792329 3.902072703 1.478616074
C -0.852044005 1.759078435 0.929619171
C -2.620233149 -0.228862293 0.154686121
C 0.241857902 -0.728383351 0.311953759
O 1.527989213 -1.046833969 -2.048387341
C 3.871269204 -0.385375987 -2.300494003
H -3.388529103 -0.037924592 -1.739662784
H -3.839595863 -1.178430433 1.498507785
H 0.931577456 -1.980428368 1.778026416
H 4.505542493 0.393908119 -0.435953845

