9

N -4.108866832 -0.380391702 1.526695676
C -1.857057144 0.175846254 1.072053328
N 3.088006411 1.002679139 -0.092442832
C 1.948236354 -0.902690914 -0.923231972
O -0.498290770 -1.442555999 -0.417587333
H -4.899746487 0.965022831 2.640569059
H -0.785655016 1.812030488 1.707358880
H 4.900783644 1.029805080 -0.706611627
H 2.712530114 -2.379187225 -2.139364048

