15

C 2.693978351 -0.860688954 -1.190817607
C 0.256423174 0.224455282 -0.171457270
C 0.029873433 3.068192274 -0.309951537
C -2.188346883 -1.343527263 -0.587095860
C -0.989257756 -1.086097943 1.905416294
N -0.921604578 -1.555281034 4.225737208
H 4.312012447 -0.087497627 -0.170174770
H 2.748905641 -2.912427989 -0.991127337
H 2.913817221 -0.398503329 -3.192074441
H 1.561414046 3.965669433 0.742103669
H -1.751783317 3.726013062 0.493003940
H 0.132753222 3.709479999 -2.270858675
H -2.405888148 -2.677155064 4.729863321
H -2.021311666 -3.129905683 -1.578460793
H -3.928194010 -0.320761168 -0.946578442

