15

C 2.599649893 -1.012184366 -1.082790997
C 0.256102941 0.148712016 0.090705493
C 0.036782839 2.983244738 -0.277933303
C -2.277647176 -1.381073325 -0.391621834
C -0.497283811 -0.817056198 2.491836029
N -1.104695607 -1.620314107 4.550342778
H 4.314266966 -0.153264480 -0.324285582
H 2.682284669 -3.041845712 -0.737714818
H 2.554199826 -0.700738226 -3.122082898
H 1.676307788 3.960859400 0.502595831
H -1.657912722 3.727683296 0.626813028
H -0.073322205 3.391737480 -2.297588114
H -2.586501784 -2.191649274 2.651340120
H -1.977407697 -3.038507416 -1.562839844
H -3.821740351 -0.163763137 -0.977240458

