14

O 3.796527342 1.718917049 0.872285901
C 3.028527811 -0.480073678 -0.405853078
C 0.501909293 -1.502914210 0.541631639
C -1.646277130 0.187652091 -0.048354463
C -4.316934276 0.892163268 0.183993241
O -1.792381532 2.567958582 0.269793950
H 2.614465573 3.051779738 0.524264678
H 2.919759842 -0.174322530 -2.455188249
H 4.489916026 -1.892256222 -0.065210159
H 0.115400604 -3.378006995 -0.223253548
H 0.538821257 -1.654108949 2.608065373
H -1.869095758 -0.271473085 -3.068503039
H -4.973834220 0.867071976 2.145003047
H -3.477395553 0.054441573 -2.523432458

