11

N 3.530070856 -0.594888675 -0.155925668
C 0.973601110 -0.347123773 -0.283236914
C -0.678803268 1.938043757 0.324134744
O -2.331691264 1.233647380 2.341966858
C -2.832833953 0.327165468 -0.182445612
C -1.038969874 -1.825028025 -0.777756528
H 4.471317682 0.684142557 0.882717623
H 4.244111582 -2.354092191 -0.092328504
H -0.384596116 3.921503831 -0.067026223
H -4.624699192 0.838617803 -1.016916675
H -1.311227592 -3.836676973 -0.983266700

