11

C -1.953315050 -2.433066416 0.929157586
C -0.433782115 2.657078897 0.391191355
C -0.407059933 -0.171035691 0.483807550
C 1.730888710 0.875681360 -0.056138415
C 4.301815409 0.651483459 -0.650651167
N 6.413837558 0.502266792 -1.140029063
H -2.804887473 -2.343988808 2.806855925
H -0.834906022 -4.153340270 0.773487768
H -3.500988500 -2.505136130 -0.434623365
H -0.501676630 3.724834119 2.148568564
H -1.295522569 3.607447544 -1.217161599

