11

C -2.388706758 -1.566787445 0.925988856
C -0.370282896 1.366324088 0.018972510
C 1.015443294 -1.779875570 0.827586791
C 2.130524930 0.354670111 0.177188337
C 4.630923629 1.182109201 -0.180269006
N 6.651072245 1.916217212 -0.489756030
H -2.534737593 -2.269806324 2.848201753
H -2.690371487 -3.108896200 -0.393867056
H -3.935576130 -0.222974700 0.653557868
H -1.035986695 2.608413687 1.509385199
H -1.203538147 1.671396655 -1.830687868

