18

C -4.070184251 -0.732008752 -0.419779906
C -1.993119863 0.450098294 1.178409873
C 0.370379650 1.260525409 -0.188722451
C 2.246594705 2.627832664 1.169888078
C 3.380248361 -0.776154361 -0.235233467
C 1.536296392 -2.284815002 -1.482848966
H -4.558225978 0.491053270 -2.010186716
H -3.519885251 -2.563907992 -1.177410869
H -5.776711273 -0.990394407 0.708479035
H -2.690929505 2.207800328 2.030967883
H -1.482184765 -0.770955819 2.765110533
H 0.069477860 1.879471866 -2.118101832
H 3.392074173 4.028938749 0.232627024
H 2.342624747 2.482519528 3.204009082
H 4.005599252 -1.393620237 1.610489912
H 4.868040605 0.073799078 -1.350997559
H 0.565681352 -3.754892442 -0.458050300
H 1.315249893 -2.205281323 -3.508445586

