12

C -3.463620697 -0.275659679 -0.639400683
C -0.980763512 -1.529805637 -1.282676192
O 1.007300861 -0.001666738 -0.397352863
C 3.393640964 -1.024858306 -0.914276692
H 3.698331995 -1.255076591 -2.955013345
H 3.641946762 -2.875088909 -0.006020119
H 4.805061362 0.277673976 -0.173415612
H -0.865957529 -3.414480296 -0.410584442
H -0.805096669 -1.794610351 -3.338250899
H -3.649110185 -0.044411323 1.400598126
H -3.577824103 1.586502919 -1.515740311
H -5.042893524 -1.416617637 -1.315533862

