15

C -4.017931680 0.657971116 -0.069989446
C -1.632579828 -0.786815799 -0.712099921
O 0.577671248 0.422732962 0.287910055
C 1.661341686 -0.408320229 2.730805995
N 3.941861624 -0.540284359 2.771703845
C 3.814988473 0.454749685 -1.374433715
H -4.321004236 0.725436965 1.967661416
H -3.899704329 2.592807592 -0.769038068
H -5.656672865 -0.251237898 -0.934257711
H -1.703981561 -2.732931805 -0.017116062
H -1.354694978 -0.861517863 -2.757492348
H 0.139697683 -0.698800671 4.089825724
H 4.670715838 -1.392285618 -1.480212401
H 5.062689274 1.930538559 -0.729157401
H 2.690142169 0.975789961 -3.010217555

