17

C -2.740284729 1.058792137 -1.964321041
C -1.934057266 0.130236995 0.628448095
N 0.310977923 -1.518094305 0.475602605
C -0.189120937 -3.984470262 0.279853094
C 2.565259939 -0.420032884 0.439893320
C 3.008911471 2.332759961 0.864880177
H -4.459288328 2.185711546 -1.803051814
H -1.283003776 2.224526219 -2.836806932
H -3.121186336 -0.538631396 -3.209125043
H -1.499695213 1.700172440 1.884000821
H -3.426943985 -0.974496840 1.510651486
H -2.129200912 -4.587335849 0.249023895
H 1.357714836 -5.286622803 0.035254617
H 4.150455376 -1.691256240 0.237919524
H 5.014032398 2.714784859 0.589778270
H 2.544582972 2.967673565 2.785286497
H 1.990847769 3.570419967 -0.446396321

