11

N -4.402159243 -0.742648912 -0.685586213
C -2.037798412 -0.798864409 0.102805202
O -0.783575693 0.993444444 -1.178841581
C 3.198982052 -0.211408726 1.129140877
C 1.817842133 1.193188155 -0.780308773
O 3.312357078 -0.831429682 -1.510088971
H -5.643185342 -1.952678987 0.078399994
H -5.016636460 0.453530831 -2.049230971
H 2.161944669 -1.551715442 2.275579948
H 4.924950690 0.574100875 1.913662926
H 2.421560403 3.041800132 -1.429324231

