11

N -4.111948351 -0.568800194 -0.311799349
C -1.671272216 -0.142664023 -0.001708426
O -0.460188714 0.314822684 -2.071841526
C 2.334150006 -0.274146405 1.257219446
C 2.222034388 1.049201248 -1.120819978
O 4.225565262 -0.090792515 -1.919777135
H -5.187490888 -0.969364476 1.194842535
H -4.940050206 -0.517215754 -2.034543926
H 2.157856303 -2.297708357 1.157221225
H 3.235934040 0.541600043 2.908940329
H 2.149692233 3.122385991 -1.191521209

