14

C -3.311964071 0.645644867 2.101708005
O -1.065393385 -0.104979218 0.903215539
C -1.273928461 -0.227938671 -1.733637090
C 1.319328205 -0.773478017 -2.810353223
N 3.114796170 1.192259128 -2.242528808
C 3.682762050 2.312127761 -0.351515572
O 4.419221429 3.530486539 1.327244268
H 1.183003967 -0.951334996 -4.858689711
H 2.011894783 -2.571655812 -2.065611703
H -1.994158740 1.567646779 -2.491447218
H -2.583943189 -1.737195444 -2.304750270
H -3.919122228 2.520385445 1.456997172
H -4.843836445 -0.706461904 1.746920655
H -2.936082390 0.720963568 4.122679539

