16

C -4.298402167 0.883145268 1.806431400
O -2.363185818 -0.689103730 0.905939920
C -1.250492588 0.228397345 -1.316194888
C 0.941040203 -1.466394591 -2.040000510
N 2.983257210 -1.479307033 -0.183008164
C 4.371766003 0.491995866 0.224047649
O 4.934485001 2.591811839 -0.214067590
H -3.583143210 2.774897614 2.268404998
H -5.827590108 1.082179539 0.417533986
H -5.055692563 0.019823454 3.513970749
H -0.584809556 2.179385121 -1.047597815
H -2.632093694 0.249597937 -2.871428755
H 1.656364091 -0.888024485 -3.891393521
H 0.276226748 -3.409669167 -2.197702293
H 4.577227288 -1.915565314 1.821866097
H 5.838137690 -0.656321706 2.290782492

