12

O -4.265236283 -1.329025222 0.917417719
C -1.802657390 -1.039818455 0.800944299
C -0.547629082 1.221383133 0.538505408
C 2.365912768 1.073510307 1.026644967
C 1.555292089 1.009485365 -1.550932434
C 1.781222265 -1.172041969 -3.079187891
N 2.050687591 -2.833755345 -4.471208399
H -0.798403429 -2.824474163 0.764186083
H -1.534597566 3.003369376 0.769217913
H 3.086214649 -0.571062328 2.038085556
H 2.965361069 2.873148614 1.808370051
H -5.118101619 0.281380050 0.885211457

