12

C -2.160854977 -2.409701540 -0.029316569
C -2.481969788 0.394624174 -0.252943772
C -1.112146324 2.346638488 0.531197781
O 1.101231398 2.567335671 1.830674167
N 2.230315867 0.252047570 2.558174090
H 2.474109529 0.437313938 4.451494417
H 3.979762425 0.324861665 1.774721739
H -1.746405667 4.253076821 0.128488129
H -4.167012098 0.998359017 -1.257742428
H -0.486653950 -2.924778653 1.033529012
H -3.813640626 -3.239688491 0.892428038
H -2.041755328 -3.263160515 -1.908113349

