14

C -2.486088087 -2.346795373 -0.393247963
C -2.193441811 0.388787321 -0.961829571
C -1.206783884 2.127433999 0.713030781
O 0.060104705 1.446696181 2.623921744
C 2.216635818 0.116235863 -2.044801661
O 3.448458593 0.635955202 -3.717672491
N 3.842392431 0.733118778 1.647336586
H -1.240126817 -2.915428118 1.139540134
H -4.438466929 -2.709567665 0.188002049
H -2.121390315 -3.510233003 -2.054752392
H -3.136713403 1.125772081 -2.631443723
H -1.278602283 4.136274796 0.204534432
H 3.656718052 -0.939366265 2.581272137
H 3.681719545 2.078046196 3.004871860

