15

C -4.100951619 -0.942813749 -0.956154781
C -1.847761109 0.830230178 -0.971205164
C 0.578897586 -0.407877032 -1.808992905
O 0.694322058 -2.568680684 -2.509328770
C 2.951958073 1.213633083 -1.748101054
C 4.009822279 1.599023716 0.873400140
O 3.005533925 0.936383445 2.792591347
H 5.861030834 2.579623181 0.922164277
H 2.604833809 3.094006745 -2.544573599
H 4.412500655 0.320104034 -2.902580720
H -2.172204861 2.448069122 -2.225173714
H -1.502824373 1.635480803 0.902741955
H -5.801345781 0.050974644 -0.349412893
H -4.435750617 -1.731596205 -2.829539914
H -3.776973344 -2.519995027 0.328398911

