14

C 0.440056819 -2.601962597 -1.240234248
C -1.953188419 -1.163489427 -0.384433033
C -0.299800023 1.144808294 0.204384293
O 0.363034946 1.172283268 2.865933639
C 0.191803498 3.148852966 4.268541527
C 1.844596214 -0.043628315 -1.344276899
H 0.316080108 -3.672985665 -2.992647505
H 1.174435968 -3.828833249 0.240450056
H -3.244116308 -0.767706945 -1.940492124
H -3.021874142 -1.922410147 1.202264566
H -0.976399190 3.034312924 -0.280801076
H -0.540928869 4.722254395 3.034354252
H 1.903005041 0.751635883 -3.244265918
H 3.721595827 0.067989058 -0.507646993

