14

N -4.351633446 -1.014715126 0.704302873
C -2.086695831 0.084081701 0.106816712
C 0.328406300 -1.030113993 -0.349617550
C 2.397337345 -0.127552205 1.112633363
N 4.557456444 -1.305819120 0.639745426
C 0.623167576 2.583161825 -1.707287883
N -1.720288745 2.485226996 -0.376042913
H -5.886123582 -0.442786150 -0.262824640
H -4.285554996 -2.885784551 1.021958219
H 0.411358701 -2.854407066 -1.338310429
H 6.129479224 -0.808801515 1.576061691
H 4.780771427 -2.649088984 -0.712299533
H 1.814031784 4.006558873 -0.753162403
H -2.692255544 3.955023982 0.352645987

