13

N 3.791731746 1.299505054 0.197579181
C 1.248077575 0.771764225 -0.180280855
C 0.039001736 -1.522046723 0.295699639
O 1.350875407 -3.626364005 0.975890797
C -2.547536557 -1.148866462 0.066944172
C -2.874068684 1.379244958 -0.595942103
N -0.416168564 2.564548155 -0.846746913
H 4.457349450 2.649817039 -0.967585507
H 4.884352362 -0.259611482 0.182302919
H 0.221982840 -5.036552831 1.097841154
H -4.026478325 -2.529264058 0.341643851
H -4.472502446 2.282763950 -1.482129283
H -1.875146377 3.052898947 0.928145203

