12

C -2.634804960 -1.614477140 -1.078051356
C -1.215491175 -0.406416897 0.970202381
O -2.140290656 0.332717937 2.986472069
C 1.587606425 0.205920961 1.225725441
C 3.013081189 1.785176082 -0.275928152
O 0.568130947 1.487114815 3.816121515
H -1.759849311 -3.436424533 -1.497844094
H -4.630410909 -1.841695201 -0.643167909
H -2.376748533 -0.443721735 -2.762045247
H 2.548208222 -1.528472397 1.813007496
H 2.219637308 3.504485495 -1.046426884
H 4.992361737 1.400258505 -0.573006894

