9

C 5.133293449 0.866106458 -0.563301468
C 3.353981659 -0.276666449 1.335225375
C 1.304195486 -1.506188709 0.727628481
N -0.714589824 -2.472783262 0.158736749
H -0.649863284 -4.371643265 -0.130123404
H 3.764885484 -0.102531834 3.334449809
H 7.007736980 0.010830285 -0.437569202
H 4.440457188 0.602374107 -2.484646226
H 5.348226023 2.892907004 -0.238550825

