16

C 3.965073092 1.912457035 -0.527034903
C -0.035591933 2.471104335 -0.349512065
N 3.341508654 -0.362057258 -1.177297202
C 1.774486525 -1.537019723 0.744068512
C -0.692123909 -0.124595161 0.197879912
C -3.227562950 -0.431638505 1.519811612
C -2.848410209 -1.528873926 -1.040608890
H 4.213883750 2.511618759 1.428299943
H 4.808844745 3.135224053 -1.950637648
H -1.323335200 3.335471565 -1.745165950
H 2.447337439 -1.189929776 2.676000838
H 1.595936470 -3.565551333 0.440389562
H -4.424981824 1.215403586 1.727895384
H -3.221697165 -1.671251032 3.147550812
H -2.657610156 -3.560950890 -1.204896293
H -3.777844281 -0.615782016 -2.618435056

