15

C 4.218686017 -0.138006283 -0.948453372
C 1.448115875 0.006720206 -0.422024258
C -0.043237368 -1.892642123 0.279102457
C -2.796911185 -1.269413868 0.502969751
C -2.978431795 1.514204455 -0.084478430
O -1.330294947 3.015682794 1.346502750
C 0.231769694 2.565713209 -0.789228488
H 4.602387876 0.447855586 -2.889965079
H 4.933246077 -2.050339334 -0.672348360
H 5.272361777 1.140187819 0.283113722
H 0.631431198 -3.803336592 0.595117918
H -3.935408530 -2.368148560 -0.829608288
H -3.536534079 -1.655688438 2.396441691
H -4.825799935 2.401147543 -0.276050115
H -2.102194722 1.871541876 -2.160917338

