14

C -1.585861414 -2.136664895 -0.141262999
C -2.968141064 0.119166564 0.160773118
O -0.579708978 1.884503866 -1.729125671
C 1.548717165 1.986125438 -0.080443544
C 2.474015458 -0.683860421 0.577460298
O 0.542662579 -2.304040168 1.455935184
H -2.489702075 -3.919773655 -0.575933116
H -0.754806805 -0.402275808 -2.098691605
H -4.690461813 0.344817551 -0.925524456
H -2.789229524 1.330798522 1.808623010
H 1.030879503 3.037617053 1.624389358
H 3.081219762 3.017245862 -1.006897518
H 3.908646324 -0.579663114 2.055018390
H 3.332347905 -1.513216147 -1.121648359

