12

C 3.085517510 0.950471165 -0.063040394
C 2.879256057 -1.388583474 0.132951115
C 0.406322089 -2.559963132 0.558105270
C -0.094615053 0.261835066 0.770180389
C -2.120759562 1.414731085 -1.052274169
O -4.082726609 0.980188072 0.382784322
H 3.958067726 2.749827789 -0.371508005
H 0.201152389 -3.681138567 2.261208373
H -0.414805826 -3.442327603 -1.101509358
H -0.238112389 0.886193000 2.722297352
H -1.962830671 0.386672094 -2.885034197
H -1.618032244 3.423716938 -1.426095029

