15

C -3.131476121 -0.446130909 -1.158884996
O -1.426792999 -1.754402988 -2.665934192
C 0.205395901 -1.793638994 1.366460677
C 2.765469298 -1.304503568 1.432978168
C 3.112990556 1.062303607 0.350166119
C 0.785261613 2.019733669 -0.599839361
C -1.301540572 0.539110517 0.812438784
H -4.160546722 1.071477831 -2.148555109
H -4.547645043 -1.698634808 -0.287982526
H -0.675396016 -3.585507465 1.805039560
H 4.238986437 -2.615472287 1.955501935
H 4.934230833 1.963771150 0.085852185
H 0.573667013 4.021302592 -0.990146173
H 0.432318239 0.646880351 -2.384410220
H -1.940704888 1.528651089 2.521425418

