14

C -3.610185965 1.096368188 -0.908067865
O -2.753347272 -1.116243402 0.282943288
C -0.972022924 -2.470697496 -1.185670182
C 1.715906961 -1.814711424 -1.166479163
C 2.453470016 0.161177746 0.515814503
C 4.509118365 1.489410889 -0.155364646
H -4.562157119 0.666561868 -2.701076049
H -4.956741288 2.001124025 0.359052140
H -2.062609306 2.422066093 -1.293612982
H -0.957236876 -4.426068492 -0.467149860
H -1.617616882 -2.647581776 -3.155199800
H 5.659242364 0.844292121 -1.721887321
H 5.014086955 3.256719157 0.754618286
H 1.291311183 0.766800614 2.106695937

