9

O 4.129627495 -1.317913726 1.216451440
C 1.957145827 -0.849269906 0.880724510
N 0.857583661 1.546547495 0.387103877
C -2.046361498 1.345484075 0.328812157
C -2.226904628 -1.171330713 0.523638517
O 0.016436989 -2.474209401 0.942519103
H 1.710985056 3.116696951 1.054547888
H -0.377869617 2.095099103 -1.404670127
H -3.876075439 -2.362218032 0.447971578

