10

C -0.954629431 -1.430069085 -0.092212210
C -1.065042349 1.433856304 0.431700922
N 1.414499103 2.380724404 -0.437576364
C 3.092832035 0.901017164 -0.592497095
O 1.424613503 -2.347432022 0.410571195
H -2.327406764 -2.338249578 1.168725613
H -1.550943017 -1.782418045 -2.055973552
H -2.578333896 2.410688185 -0.564345788
H -1.187088875 1.870705030 2.443922552
H 3.715794179 -1.133821993 -0.715728138

