12

N 4.094040759 0.856386180 0.292249622
C -0.423438548 0.392709976 0.012507965
C 1.641456514 1.802481400 0.193258436
C -3.179552908 0.653981791 -0.096864035
C -3.347868395 -1.874736137 -0.219019825
N -0.665908816 -2.339330671 -0.270829010
H 4.278188258 -0.874640858 -0.485366064
H 5.419091130 2.051886793 -0.361804677
H 1.449693570 3.830960193 0.388817141
H -4.480889371 2.210715136 -0.267900860
H -4.816082169 -3.283367129 -0.393079153
H 0.004422658 -3.360080467 1.208372501

