12

N 3.917261358 0.546600806 0.400320395
C 0.897138180 0.006950356 -0.372803979
C 1.898801251 2.196647940 -0.541782137
C -4.035230516 0.961232305 -0.575556985
C -3.313472167 -1.278679214 0.257971275
N -0.544058047 -1.922626767 0.052873290
H 5.246054748 -0.081146654 -0.812873535
H 4.476580909 0.683799779 2.225708601
H 1.763063697 4.179349761 -0.931597808
H -6.057137295 1.235948935 -0.200587096
H -4.248006969 -2.860730165 1.193678917
H -0.027846286 -3.600378967 -0.695008898

