16

C -3.609939564 -1.026471036 -0.818763358
C -0.738872219 -1.090674254 -0.840648276
O 0.307224133 0.774376299 -2.352054027
C 0.330669361 -0.740955302 1.878889339
N 2.938534272 0.052507269 1.518398437
C 3.145105280 1.961548945 -0.147885620
O 1.778103045 4.008578915 0.020129873
H -4.376736833 -2.483866601 0.428827594
H -4.345004911 -1.342442334 -2.716436877
H -4.279936292 0.813912072 -0.165855385
H -0.118571754 -2.953811895 -1.540849347
H 0.327335279 3.081606079 -1.181301683
H -0.691010861 0.752658451 2.866388062
H 0.261705563 -2.455842453 3.014276819
H 4.156038005 -1.374111196 1.173128221
H 4.911704636 2.030453349 -1.212452666

