11

C -1.837257576 -0.302918487 3.105607736
C -0.587891379 -0.148351816 0.942472691
N -1.064840508 1.511539071 -1.107261118
O 1.358911429 -1.656298763 0.248458394
C 2.026304587 -0.917063169 -2.240771835
O 1.301565536 1.606022071 -2.406914232
H -3.341184358 1.011069787 3.521676258
H -1.386554154 -1.768959397 4.448106138
H 0.985099829 -2.090226992 -3.597265227
H -1.398376432 3.305638194 -0.536229101
H 4.062431083 -1.051543488 -2.491665765

