17

C 3.492074473 1.452949549 0.444981029
C 2.074032247 -0.991322962 0.695888527
O 1.117840598 -1.334399603 3.246336585
C -0.761215830 -1.443950409 1.435859584
C -2.564171022 0.692521357 0.948154549
C -2.750219718 0.396010043 -1.928367717
C -0.161630486 -0.743829991 -2.546066936
H 2.260578886 3.081877708 0.688636004
H 4.948593583 1.520059015 1.908553712
H 4.349631300 1.564330574 -1.417772713
H 3.079297589 -2.662682521 0.062993964
H -1.550042430 -3.327709610 1.191858808
H -1.687828768 2.481443858 1.463629979
H -4.342731683 0.526995219 1.976094715
H -4.329268613 -0.851385227 -2.413775884
H -3.032191423 2.197569805 -2.892391600
H -0.376105331 -2.778302995 -2.905831295

