12

C -0.126244647 2.699727125 0.182933841
C -0.116707539 -0.192745092 0.453359735
C -2.457593833 -1.455559223 0.030710884
O -3.973324543 -1.054535623 1.842328902
C 2.143334098 -1.430847388 -0.372744661
C 4.047410916 -2.478689866 -1.027996801
H 1.334116389 3.511974177 1.385001366
H 0.265044482 3.258967761 -1.766935255
H -1.937789022 3.503890250 0.747361984
H -1.907896786 -0.233594262 2.682390040
H -3.010660223 -2.717273062 -1.506796199
H 5.737561156 -3.407601467 -1.596089670

