11

C -2.176144959 -0.800386036 -0.404746700
C -0.173986158 0.102329803 1.345599764
C 2.281966410 -0.178524600 -0.112856598
O 1.341829779 0.914508940 -2.388205754
C -1.137649539 1.587743770 -1.608145990
H -4.095947020 -0.623656637 0.290646908
H -1.807373164 -2.536402593 -1.428927861
H -0.395755931 0.164029947 3.382532114
H 2.958061530 -2.123981148 -0.327670857
H 3.816249166 1.002513428 0.603413891
H -0.574031957 2.480284606 0.735396200

