10

N 3.526020228 1.968030668 0.650614960
C 2.235572499 0.175136624 -0.195536519
O -0.145072952 0.616995277 -1.021770777
C -1.795740388 -1.358588551 -1.155381708
C -1.790823018 -3.402488038 0.285420738
H -3.215206787 -4.832162359 -0.023640379
H -0.448791624 -3.700666033 1.798888596
H -3.202883108 -1.022003157 -2.602306338
H 2.829185156 -1.790920131 -0.436281807
H 5.295134829 1.364668763 1.074949995

