19

C -4.290947216 1.708221483 -0.112582531
C -2.051176936 -0.016402955 -0.392156910
C -1.965822693 -1.770449994 -2.183724934
O 2.867108312 -3.160099255 0.762805449
C 2.682145944 -0.495904159 1.058302282
C 3.878710870 0.697468773 -1.255979276
C -0.017451035 0.405591295 1.570687102
H -5.771702819 1.254393039 -1.469847688
H -3.736980957 3.680585539 -0.390311385
H -5.091986058 1.575414347 1.789437547
H 2.026044580 -3.961238989 2.153867960
H -3.518362793 -1.979875623 -3.504650563
H -0.378328102 -3.041687750 -2.383007325
H 3.804489344 0.067591403 2.714772349
H 5.807886388 0.008639280 -1.476953625
H 3.936974074 2.749403621 -1.053218201
H 2.819651601 0.239431078 -2.960988016
H 0.091564412 2.435554505 1.968597605
H -0.669999809 -0.438232326 3.352812391

