14

C 3.573976923 0.207329053 0.347368984
N 1.041743746 -0.973485478 0.496628095
C -0.992867246 0.474633081 -0.838914622
C -3.386918074 -1.058500231 -0.910992669
C -1.129096752 2.925501057 0.180896452
N -1.134580491 4.969215824 0.977596596
H 4.042838535 0.426842418 -1.639797656
H 4.949363665 -0.975481501 1.321403918
H 3.471667736 2.061502362 1.227580301
H 0.628200786 -1.320233516 2.367154092
H 1.114747665 -2.694516942 -0.354765712
H -4.877754383 0.066848419 -1.776479373
H -3.181424380 -2.755190322 -2.080052518
H -4.095818783 -1.663290788 0.958406427

