14

C 3.475551218 0.226693322 0.914590614
N 1.263247351 -1.234543111 0.200989041
C -1.000288654 0.231319466 -1.081769071
C -3.437378335 -1.090997719 -0.477022148
C -0.871628578 2.867564284 -0.652412789
N -0.734499260 5.031053143 -0.389319052
H 4.117680288 1.297484086 -0.723321568
H 4.972791960 -1.054380004 1.508391033
H 3.037943088 1.564373112 2.422105948
H 0.641593502 -2.475411758 1.518676132
H 0.842216541 -1.381765928 -1.928154556
H -4.979893419 -0.167347343 -1.480704826
H -3.404366822 -3.058313258 -1.106381204
H -3.898888099 -1.064551115 1.550364742

