12

C 2.229942476 -0.756437582 -0.709554327
C 1.488323276 1.884732580 0.256381732
C -2.038554869 1.285715590 -0.554461103
O -2.196978490 -1.175559429 -1.503899098
C -0.243107635 -1.909031321 0.262278774
C -0.584302807 0.583574375 1.776828878
H 3.775217241 -1.288507358 0.555913849
H 2.788870419 -1.057435503 -2.670617632
H -0.475420360 2.542712578 -1.651022062
H -3.704327000 2.482019544 -0.589433962
H -0.431939935 -3.865481974 0.864070543
H -1.178755958 0.967489150 3.695018341

