11

C 2.275199848 -1.190081993 -0.430681642
N 0.950722536 0.466599610 1.312024867
C -1.223335580 1.688290636 0.298951328
C -4.660902679 -1.479222752 -1.277194078
N -3.178284959 -0.013340692 -0.576731261
H 1.117863048 -2.760924601 -1.132903341
H 3.937718551 -1.964630673 0.504632275
H 2.922557185 -0.091721372 -2.053789104
H 0.523935752 -0.437252220 2.938030225
H -2.070735148 2.908266075 1.724938813
H -0.680261891 2.850757306 -1.316099306

