11

C 2.411471571 -1.075888603 -0.547412292
N 0.845441283 0.338470963 1.196690177
C -1.115461395 1.659691880 0.366638956
C -3.461489294 -0.873095006 -1.568135367
N -4.640582907 -0.565007400 0.286126872
H 1.347142536 -2.664833464 -1.336185942
H 4.088444051 -1.754792101 0.429312195
H 2.993885011 0.149472159 -2.095499101
H 0.664241322 -0.405412999 2.939480968
H -2.264123219 2.601989469 1.761038837
H -0.924925677 2.593347071 -1.437817076

