14

O 1.300475013 -1.214496650 -4.605077070
C 1.117028696 -0.114853982 -2.181455222
C -1.402107488 -0.685503424 -0.912382374
C -1.702349386 0.582070285 1.630832436
O 0.058535325 -0.514977543 3.429363912
C 1.887966260 0.722952202 4.442939702
H 1.480741657 -3.007892530 -4.423528133
H 1.309954427 1.921571959 -2.468291724
H -1.631924943 -2.726966053 -0.673741523
H -2.930993641 -0.046816793 -2.145843163
H -3.581223739 0.262096396 2.411645747
H -1.326722307 2.615720162 1.544152399
H 1.778701238 2.714798579 3.697635423
H 2.688128760 -0.717433862 -0.972051478

