14

O 1.982570864 -1.234660425 -3.671446899
C 1.052620764 0.253700135 -1.723875483
C -1.613079404 -0.352917390 -0.879314907
C -1.950509260 0.242939184 1.913895533
O 0.238729763 -0.752607788 3.109672820
C 2.380871670 0.335614056 2.249003766
H 1.672033606 -2.984574841 -3.296857166
H 1.368810854 2.213692192 -2.251346402
H -1.964801070 -2.368052071 -1.181407451
H -2.969483337 0.695882178 -2.026723521
H -3.612967491 -0.665983101 2.722571570
H -2.055548288 2.288000173 2.242633915
H 2.102586557 2.403986706 2.063889690
H 2.767288556 -0.333775466 0.026048609

