13

C 3.783763659 -0.603701829 -0.428057209
C 1.638898127 -1.353597860 1.266510398
O 1.639176862 -3.198403928 2.582140712
C -0.698514018 0.400626776 1.256022626
O -0.150351410 2.836505615 0.438979939
C -2.720206049 -0.844291233 -0.305962250
O -3.618744913 0.573355719 -2.101690166
H 3.096821114 -0.300811971 -2.351173963
H 4.570482251 1.194146964 0.203316635
H 5.222189189 -2.070330236 -0.395852988
H -1.415973127 0.381088331 3.204001845
H -1.288180662 3.240991722 -0.935564457
H -4.429303779 -1.454274795 -1.848690930

