27

C     3.67665  -0.90318   2.02883
N     2.29920  -1.03559   1.60025
C     1.99268  -1.07023   0.28290
O     2.84276  -1.03989  -0.61935
C     0.57908  -1.20593  -0.07645
N    -0.51318  -1.38116   0.66347
C    -1.64532  -1.39050  -0.09737
C    -3.03034  -1.56277   0.40729
C    -1.23161  -1.11062  -1.41735
O    -1.80338  -0.99279  -2.50250
O     0.18537  -0.99754  -1.33288
C    -1.27409   1.38457  -0.02917
O    -2.56035   1.50774  -0.31896
C    -2.80402   2.93924  -0.42915
C    -0.12970   1.53148   0.23913
Cl    1.40129   2.10900   0.65915
H     4.07592   0.10071   1.83580
H     3.73239  -1.11381   3.10521
H     4.30461  -1.63549   1.49468
H     1.57460  -0.80278   2.27590
H    -0.50466  -1.51039   1.68501
H    -3.31213  -2.59395   0.26151
H    -3.72276  -0.92140  -0.18525
H    -3.13428  -1.28253   1.46261
H    -3.82020   3.08233  -0.62486
H    -2.14613   3.34249  -1.24561
H    -2.47627   3.44358   0.52368
27

C     3.67661  -0.90410   2.02883
N     2.29884  -1.03457   1.59994
C     1.99198  -1.06587   0.28321
O     2.84060  -1.04079  -0.61943
C     0.57519  -1.18120  -0.07333
N    -0.51293  -1.38450   0.66431
C    -1.64495  -1.37559  -0.09389
C    -3.02946  -1.55913   0.40607
C    -1.22924  -1.10673  -1.41840
O    -1.80296  -0.99464  -2.50126
O     0.18605  -0.99708  -1.33524
C    -1.27569   1.36273  -0.03046
O    -2.55732   1.50905  -0.31618
C    -2.79670   2.94001  -0.42753
C    -0.12413   1.50275   0.23606
Cl    1.39275   2.10997   0.65679
H     4.07606   0.10038   1.83584
H     3.73230  -1.11416   3.10519
H     4.30440  -1.63588   1.49464
H     1.57464  -0.80202   2.27582
H    -0.50526  -1.50765   1.68542
H    -3.30922  -2.59330   0.25957
H    -3.72324  -0.92114  -0.18552
H    -3.13505  -1.28295   1.46246
H    -3.81801   3.08323  -0.62440
H    -2.14391   3.34230  -1.24529
H    -2.47395   3.44401   0.52401
27

C     3.67657  -0.90502   2.02884
N     2.29847  -1.03355   1.59963
C     1.99128  -1.06152   0.28351
O     2.83845  -1.04170  -0.61951
C     0.57130  -1.15646  -0.07021
N    -0.51267  -1.38784   0.66516
C    -1.64459  -1.36069  -0.09041
C    -3.02857  -1.55549   0.40485
C    -1.22687  -1.10284  -1.41945
O    -1.80255  -0.99650  -2.50002
O     0.18673  -0.99662  -1.33760
C    -1.27729   1.34088  -0.03175
O    -2.55428   1.51037  -0.31341
C    -2.78939   2.94078  -0.42591
C    -0.11856   1.47402   0.23300
Cl    1.38421   2.11095   0.65444
H     4.07621   0.10005   1.83588
H     3.73221  -1.11452   3.10518
H     4.30418  -1.63627   1.49460
H     1.57469  -0.80126   2.27575
H    -0.50587  -1.50491   1.68583
H    -3.30632  -2.59265   0.25763
H    -3.72372  -0.92089  -0.18579
H    -3.13582  -1.28338   1.46230
H    -3.81582   3.08413  -0.62393
H    -2.14169   3.34212  -1.24496
H    -2.47163   3.44444   0.52433
27

C     3.67653  -0.90594   2.02884
N     2.29811  -1.03253   1.59933
C     1.99058  -1.05717   0.28382
O     2.83630  -1.04260  -0.61959
C     0.56741  -1.13173  -0.06709
N    -0.51241  -1.39118   0.66600
C    -1.64422  -1.34579  -0.08693
C    -3.02769  -1.55185   0.40363
C    -1.22449  -1.09895  -1.42050
O    -1.80213  -0.99835  -2.49877
O     0.18741  -0.99616  -1.33996
C    -1.27888   1.31903  -0.03304
O    -2.55124   1.51169  -0.31064
C    -2.78208   2.94155  -0.42428
C    -0.11298   1.44529   0.22994
Cl    1.37567   2.11192   0.65209
H     4.07635   0.09972   1.83592
H     3.73211  -1.11487   3.10516
H     4.30397  -1.63666   1.49456
H     1.57473  -0.80050   2.27567
H    -0.50647  -1.50218   1.68625
H    -3.30342  -2.59200   0.25568
H    -3.72419  -0.92064  -0.18607
H    -3.13660  -1.28380   1.46215
H    -3.81363   3.08502  -0.62347
H    -2.13946   3.34193  -1.24464
H    -2.46931   3.44486   0.52465
27

C     3.67650  -0.90686   2.02884
N     2.29774  -1.03152   1.59902
C     1.98988  -1.05282   0.28412
O     2.83415  -1.04350  -0.61967
C     0.56352  -1.10700  -0.06396
N    -0.51216  -1.39451   0.66685
C    -1.64385  -1.33089  -0.08345
C    -3.02681  -1.54821   0.40241
C    -1.22212  -1.09507  -1.42155
O    -1.80171  -1.00020  -2.49753
O     0.18810  -0.99570  -1.34232
C    -1.28048   1.29719  -0.03432
O    -2.54821   1.51300  -0.30787
C    -2.77477   2.94233  -0.42266
C    -0.10741   1.41656   0.22688
Cl    1.36713   2.11290   0.64974
H     4.07649   0.09939   1.83596
H     3.73202  -1.11522   3.10514
H     4.30375  -1.63705   1.49451
H     1.57478  -0.79974   2.27559
H    -0.50708  -1.49944   1.68666
H    -3.30051  -2.59134   0.25374
H    -3.72467  -0.92039  -0.18634
H    -3.13737  -1.28423   1.46200
H    -3.81143   3.08592  -0.62301
H    -2.13724   3.34175  -1.24431
H    -2.46699   3.44529   0.52497
27

C     3.67646  -0.90778   2.02885
N     2.29738  -1.03050   1.59872
C     1.98917  -1.04847   0.28443
O     2.83200  -1.04440  -0.61975
C     0.55963  -1.08227  -0.06084
N    -0.51190  -1.39785   0.66769
C    -1.64348  -1.31599  -0.07997
C    -3.02593  -1.54457   0.40119
C    -1.21974  -1.09118  -1.42260
O    -1.80130  -1.00205  -2.49628
O     0.18878  -0.99524  -1.34468
C    -1.28207   1.27534  -0.03561
O    -2.54517   1.51432  -0.30509
C    -2.76745   2.94310  -0.42104
C    -0.10184   1.38784   0.22382
Cl    1.35858   2.11387   0.64738
H     4.07663   0.09906   1.83600
H     3.73193  -1.11557   3.10512
H     4.30354  -1.63745   1.49447
H     1.57482  -0.79898   2.27552
H    -0.50768  -1.49670   1.68707
H    -3.29761  -2.59069   0.25179
H    -3.72515  -0.92014  -0.18661
H    -3.13814  -1.28465   1.46184
H    -3.80924   3.08681  -0.62254
H    -2.13502   3.34157  -1.24399
H    -2.46467   3.44571   0.52529
27

C     3.67642  -0.90870   2.02885
N     2.29701  -1.02948   1.59841
C     1.98847  -1.04412   0.28474
O     2.82985  -1.04531  -0.61983
C     0.55574  -1.05754  -0.05772
N    -0.51164  -1.40119   0.66854
C    -1.64311  -1.30108  -0.07649
C    -3.02504  -1.54093   0.39997
C    -1.21737  -1.08729  -1.42365
O    -1.80088  -1.00391  -2.49504
O     0.18946  -0.99478  -1.34704
C    -1.28367   1.25350  -0.03690
O    -2.54214   1.51563  -0.30232
C    -2.76014   2.94387  -0.41942
C    -0.09627   1.35911   0.22076
Cl    1.35004   2.11485   0.64503
H     4.07677   0.09873   1.83604
H     3.73184  -1.11592   3.10510
H     4.30332  -1.63784   1.49443
H     1.57487  -0.79822   2.27544
H    -0.50828  -1.49397   1.68749
H    -3.29470  -2.59004   0.24985
H    -3.72563  -0.91988  -0.18688
H    -3.13892  -1.28507   1.46169
H    -3.80705   3.08771  -0.62208
H    -2.13279   3.34138  -1.24366
H    -2.46235   3.44614   0.52561
27

C     3.67638  -0.90962   2.02885
N     2.29665  -1.02846   1.59810
C     1.98777  -1.03977   0.28504
O     2.82770  -1.04621  -0.61992
C     0.55185  -1.03281  -0.05460
N    -0.51139  -1.40452   0.66939
C    -1.64275  -1.28618  -0.07301
C    -3.02416  -1.53729   0.39875
C    -1.21500  -1.08340  -1.42470
O    -1.80046  -1.00576  -2.49379
O     0.19014  -0.99432  -1.34940
C    -1.28526   1.23165  -0.03819
O    -2.53910   1.51695  -0.29955
C    -2.75283   2.94464  -0.41780
C    -0.09070   1.33038   0.21770
Cl    1.34150   2.11583   0.64268
H     4.07691   0.09840   1.83608
H     3.73175  -1.11628   3.10509
H     4.30311  -1.63823   1.49439
H     1.57491  -0.79746   2.27536
H    -0.50889  -1.49123   1.68790
H    -3.29180  -2.58939   0.24791
H    -3.72611  -0.91963  -0.18715
H    -3.13969  -1.28550   1.46153
H    -3.80486   3.08861  -0.62162
H    -2.13057   3.34120  -1.24334
H    -2.46003   3.44657   0.52593
27

C     3.67635  -0.91054   2.02886
N     2.29628  -1.02745   1.59780
C     1.98707  -1.03542   0.28535
O     2.82555  -1.04711  -0.62000
C     0.54796  -1.00808  -0.05147
N    -0.51113  -1.40786   0.67023
C    -1.64238  -1.27128  -0.06953
C    -3.02328  -1.53364   0.39753
C    -1.21262  -1.07952  -1.42575
O    -1.80005  -1.00761  -2.49255
O     0.19083  -0.99386  -1.35176
C    -1.28686   1.20980  -0.03948
O    -2.53607   1.51827  -0.29678
C    -2.74552   2.94541  -0.41617
C    -0.08512   1.30165   0.21464
Cl    1.33296   2.11680   0.64033
H     4.07706   0.09807   1.83612
H     3.73165  -1.11663   3.10507
H     4.30289  -1.63862   1.49435
H     1.57496  -0.79670   2.27529
H    -0.50949  -1.48849   1.68831
H    -3.28889  -2.58874   0.24596
H    -3.72658  -0.91938  -0.18742
H    -3.14046  -1.28592   1.46138
H    -3.80266   3.08950  -0.62115
H    -2.12835   3.34102  -1.24301
H    -2.45771   3.44699   0.52625
27

C     3.67631  -0.91146   2.02886
N     2.29591  -1.02643   1.59749
C     1.98637  -1.03107   0.28566
O     2.82340  -1.04801  -0.62008
C     0.54407  -0.98335  -0.04835
N    -0.51088  -1.41120   0.67108
C    -1.64201  -1.25638  -0.06605
C    -3.02240  -1.53000   0.39631
C    -1.21025  -1.07563  -1.42680
O    -1.79963  -1.00947  -2.49131
O     0.19151  -0.99340  -1.35413
C    -1.28845   1.18796  -0.04076
O    -2.53303   1.51958  -0.29401
C    -2.73821   2.94618  -0.41455
C    -0.07955   1.27292   0.21158
Cl    1.32441   2.11778   0.63797
H     4.07720   0.09774   1.83616
H     3.73156  -1.11698   3.10505
H     4.30268  -1.63901   1.49430
H     1.57500  -0.79594   2.27521
H    -0.51009  -1.48575   1.68873
H    -3.28599  -2.58808   0.24402
H    -3.72706  -0.91913  -0.18769
H    -3.14123  -1.28635   1.46123
H    -3.80047   3.09040  -0.62069
H    -2.12612   3.34083  -1.24269
H    -2.45539   3.44742   0.52657
27

C     3.67627  -0.91238   2.02886
N     2.29555  -1.02541   1.59718
C     1.98567  -1.02672   0.28596
O     2.82124  -1.04892  -0.62016
C     0.54018  -0.95862  -0.04523
N    -0.51062  -1.41454   0.67192
C    -1.64164  -1.24148  -0.06257
C    -3.02151  -1.52636   0.39509
C    -1.20788  -1.07174  -1.42785
O    -1.79921  -1.01132  -2.49006
O     0.19219  -0.99294  -1.35649
C    -1.29005   1.16611  -0.04205
O    -2.53000   1.52090  -0.29123
C    -2.73089   2.94695  -0.41293
C    -0.07398   1.24419   0.20852
Cl    1.31587   2.11875   0.63562
H     4.07734   0.09741   1.83620
H     3.73147  -1.11733   3.10503
H     4.30246  -1.63940   1.49426
H     1.57505  -0.79518   2.27513
H    -0.51070  -1.48302   1.68914
H    -3.28309  -2.58743   0.24208
H    -3.72754  -0.91887  -0.18797
H    -3.14201  -1.28677   1.46107
H    -3.79828   3.09129  -0.62023
H    -2.12390   3.34065  -1.24237
H    -2.45307   3.44784   0.52689
27

C     3.67623  -0.91330   2.02887
N     2.29518  -1.02439   1.59688
C     1.98497  -1.02237   0.28627
O     2.81909  -1.04982  -0.62024
C     0.53629  -0.93389  -0.04211
N    -0.51036  -1.41787   0.67277
C    -1.64127  -1.22657  -0.05909
C    -3.02063  -1.52272   0.39387
C    -1.20550  -1.06785  -1.42890
O    -1.79880  -1.01317  -2.48882
O     0.19287  -0.99248  -1.35885
C    -1.29164   1.14426  -0.04334
O    -2.52696   1.52221  -0.28846
C    -2.72358   2.94772  -0.41131
C    -0.06841   1.21547   0.20546
Cl    1.30733   2.11973   0.63327
H     4.07748   0.09708   1.83624
H     3.73138  -1.11769   3.10501
H     4.30225  -1.63979   1.49422
H     1.57509  -0.79442   2.27506
H    -0.51130  -1.48028   1.68955
H    -3.28018  -2.58678   0.24013
H    -3.72802  -0.91862  -0.18824
H    -3.14278  -1.28720   1.46092
H    -3.79609   3.09219  -0.61976
H    -2.12168   3.34047  -1.24204
H    -2.45075   3.44827   0.52721
27

C     3.67620  -0.91422   2.02887
N     2.29482  -1.02337   1.59657
C     1.98426  -1.01802   0.28658
O     2.81694  -1.05072  -0.62032
C     0.53240  -0.90916  -0.03899
N    -0.51011  -1.42121   0.67361
C    -1.64090  -1.21167  -0.05561
C    -3.01975  -1.51908   0.39265
C    -1.20313  -1.06397  -1.42995
O    -1.79838  -1.01502  -2.48757
O     0.19355  -0.99202  -1.36121
C    -1.29324   1.12242  -0.04463
O    -2.52393   1.52353  -0.28569
C    -2.71627   2.94849  -0.40968
C    -0.06283   1.18674   0.20240
Cl    1.29879   2.12070   0.63092
H     4.07762   0.09675   1.83628
H     3.73128  -1.11804   3.10500
H     4.30203  -1.64018   1.49418
H     1.57514  -0.79366   2.27498
H    -0.51191  -1.47754   1.68997
H    -3.27728  -2.58613   0.23819
H    -3.72850  -0.91837  -0.18851
H    -3.14355  -1.28762   1.46076
H    -3.79389   3.09308  -0.61930
H    -2.11945   3.34028  -1.24172
H    -2.44843   3.44870   0.52754
27

C     3.67616  -0.91514   2.02887
N     2.29445  -1.02236   1.59626
C     1.98356  -1.01367   0.28688
O     2.81479  -1.05163  -0.62040
C     0.52851  -0.88443  -0.03586
N    -0.50985  -1.42455   0.67446
C    -1.64054  -1.19677  -0.05214
C    -3.01886  -1.51544   0.39143
C    -1.20075  -1.06008  -1.43099
O    -1.79796  -1.01688  -2.48633
O     0.19424  -0.99156  -1.36357
C    -1.29483   1.10057  -0.04592
O    -2.52089   1.52485  -0.28292
C    -2.70896   2.94926  -0.40806
C    -0.05726   1.15801   0.19934
Cl    1.29025   2.12168   0.62856
H     4.07776   0.09642   1.83632
H     3.73119  -1.11839   3.10498
H     4.30182  -1.64057   1.49413
H     1.57518  -0.79290   2.27490
H    -0.51251  -1.47481   1.69038
H    -3.27437  -2.58547   0.23625
H    -3.72897  -0.91812  -0.18878
H    -3.14433  -1.28804   1.46061
H    -3.79170   3.09398  -0.61883
H    -2.11723   3.34010  -1.24139
H    -2.44611   3.44912   0.52786
27

C     3.67612  -0.91606   2.02888
N     2.29409  -1.02134   1.59596
C     1.98286  -1.00932   0.28719
O     2.81264  -1.05253  -0.62048
C     0.52462  -0.85969  -0.03274
N    -0.50959  -1.42788   0.67530
C    -1.64017  -1.18187  -0.04866
C    -3.01798  -1.51180   0.39021
C    -1.19838  -1.05619  -1.43204
O    -1.79755  -1.01873  -2.48509
O     0.19492  -0.99110  -1.36593
C    -1.29643   1.07873  -0.04721
O    -2.51786   1.52616  -0.28014
C    -2.70164   2.95003  -0.40644
C    -0.05169   1.12928   0.19627
Cl    1.28170   2.12265   0.62621
H     4.07790   0.09609   1.83636
H     3.73110  -1.11874   3.10496
H     4.30160  -1.64097   1.49409
H     1.57523  -0.79214   2.27483
H    -0.51311  -1.47207   1.69079
H    -3.27147  -2.58482   0.23430
H    -3.72945  -0.91787  -0.18905
H    -3.14510  -1.28847   1.46045
H    -3.78951   3.09488  -0.61837
H    -2.11501   3.33992  -1.24107
H    -2.44379   3.44955   0.52818
27

C     3.67608  -0.91698   2.02888
N     2.29372  -1.02032   1.59565
C     1.98216  -1.00497   0.28749
O     2.81049  -1.05343  -0.62056
C     0.52073  -0.83496  -0.02962
N    -0.50934  -1.43122   0.67615
C    -1.63980  -1.16696  -0.04518
C    -3.01710  -1.50816   0.38899
C    -1.19601  -1.05231  -1.43309
O    -1.79713  -1.02058  -2.48384
O     0.19560  -0.99064  -1.36829
C    -1.29802   1.05688  -0.04849
O    -2.51482   1.52748  -0.27737
C    -2.69433   2.95080  -0.40482
C    -0.04612   1.10055   0.19321
Cl    1.27316   2.12363   0.62386
H     4.07805   0.09575   1.83640
H     3.73101  -1.11909   3.10494
H     4.30139  -1.64136   1.49405
H     1.57527  -0.79138   2.27475
H    -0.51372  -1.46933   1.69121
H    -3.26857  -2.58417   0.23236
H    -3.72993  -0.91761  -0.18932
H    -3.14587  -1.28889   1.46030
H    -3.78732   3.09577  -0.61791
H    -2.11278   3.33973  -1.24074
H    -2.44147   3.44998   0.52850
27

C     3.67605  -0.91790   2.02888
N     2.29336  -1.01930   1.59534
C     1.98146  -1.00062   0.28780
O     2.80834  -1.05433  -0.62064
C     0.51684  -0.81023  -0.02650
N    -0.50908  -1.43456   0.67700
C    -1.63943  -1.15206  -0.04170
C    -3.01622  -1.50452   0.38777
C    -1.19363  -1.04842  -1.43414
O    -1.79671  -1.02244  -2.48260
O     0.19628  -0.99018  -1.37065
C    -1.29962   1.03503  -0.04978
O    -2.51178   1.52879  -0.27460
C    -2.68702   2.95157  -0.40320
C    -0.04055   1.07182   0.19015
Cl    1.26462   2.12461   0.62151
H     4.07819   0.09542   1.83644
H     3.73092  -1.11945   3.10492
H     4.30117  -1.64175   1.49401
H     1.57532  -0.79062   2.27467
H    -0.51432  -1.46660   1.69162
H    -3.26566  -2.58352   0.23042
H    -3.73041  -0.91736  -0.18960
H    -3.14664  -1.28932   1.46015
H    -3.78512   3.09667  -0.61744
H    -2.11056   3.33955  -1.24042
H    -2.43915   3.45040   0.52882
27

C     3.67601  -0.91882   2.02889
N     2.29299  -1.01829   1.59504
C     1.98076  -0.99627   0.28811
O     2.80619  -1.05524  -0.62072
C     0.51295  -0.78550  -0.02337
N    -0.50882  -1.43789   0.67784
C    -1.63906  -1.13716  -0.03822
C    -3.01533  -1.50087   0.38655
C    -1.19126  -1.04453  -1.43519
O    -1.79629  -1.02429  -2.48135
O     0.19697  -0.98972  -1.37301
C    -1.30121   1.01319  -0.05107
O    -2.50875   1.53011  -0.27183
C    -2.67971   2.95234  -0.40157
C    -0.03497   1.04310   0.18709
Cl    1.25608   2.12558   0.61916
H     4.07833   0.09509   1.83648
H     3.73082  -1.11980   3.10491
H     4.30096  -1.64214   1.49396
H     1.57536  -0.78986   2.27460
H    -0.51492  -1.46386   1.69203
H    -3.26276  -2.58286   0.22847
H    -3.73089  -0.91711  -0.18987
H    -3.14742  -1.28974   1.45999
H    -3.78293   3.09756  -0.61698
H    -2.10834   3.33937  -1.24009
H    -2.43683   3.45083   0.52914
27

C     3.67597  -0.91974   2.02889
N     2.29263  -1.01727   1.59473
C     1.98005  -0.99192   0.28841
O     2.80403  -1.05614  -0.62080
C     0.50906  -0.76077  -0.02025
N    -0.50857  -1.44123   0.67869
C    -1.63870  -1.12226  -0.03474
C    -3.01445  -1.49723   0.38533
C    -1.18889  -1.04064  -1.43624
O    -1.79588  -1.02614  -2.48011
O     0.19765  -0.98926  -1.37537
C    -1.30281   0.99134  -0.05236
O    -2.50571   1.53143  -0.26906
C    -2.67239   2.95312  -0.39995
C    -0.02940   1.01437   0.18403
Cl    1.24753   2.12656   0.61680
H     4.07847   0.09476   1.83652
H     3.73073  -1.12015   3.10489
H     4.30074  -1.64253   1.49392
H     1.57541  -0.78910   2.27452
H    -0.51553  -1.46112   1.69245
H    -3.25985  -2.58221   0.22653
H    -3.73137  -0.91686  -0.19014
H    -3.14819  -1.29016   1.45984
H    -3.78074   3.09846  -0.61652
H    -2.10611   3.33918  -1.23977
H    -2.43451   3.45125   0.52946
27

C     3.67593  -0.92066   2.02889
N     2.29226  -1.01625   1.59442
C     1.97935  -0.98757   0.28872
O     2.80188  -1.05704  -0.62089
C     0.50517  -0.73604  -0.01713
N    -0.50831  -1.44457   0.67953
C    -1.63833  -1.10736  -0.03126
C    -3.01357  -1.49359   0.38411
C    -1.18651  -1.03676  -1.43729
O    -1.79546  -1.02799  -2.47886
O     0.19833  -0.98880  -1.37773
C    -1.30440   0.96950  -0.05365
O    -2.50268   1.53274  -0.26628
C    -2.66508   2.95389  -0.39833
C    -0.02383   0.98564   0.18097
Cl    1.23899   2.12753   0.61445
H     4.07861   0.09443   1.83656
H     3.73064  -1.12050   3.10487
H     4.30053  -1.64292   1.49388
H     1.57545  -0.78834   2.27445
H    -0.51613  -1.45839   1.69286
H    -3.25695  -2.58156   0.22458
H    -3.73184  -0.91660  -0.19041
H    -3.14896  -1.29059   1.45968
H    -3.77854   3.09936  -0.61605
H    -2.10389   3.33900  -1.23944
H    -2.43219   3.45168   0.52978
27

C     3.67590  -0.92158   2.02890
N     2.29190  -1.01523   1.59412
C     1.97865  -0.98321   0.28903
O     2.79973  -1.05794  -0.62097
C     0.50128  -0.71131  -0.01401
N    -0.50806  -1.44791   0.68038
C    -1.63796  -1.09245  -0.02778
C    -3.01269  -1.48995   0.38289
C    -1.18414  -1.03287  -1.43834
O    -1.79504  -1.02985  -2.47762
O     0.19901  -0.98834  -1.38010
C    -1.30600   0.94765  -0.05493
O    -2.49964   1.53406  -0.26351
C    -2.65777   2.95466  -0.39671
C    -0.01826   0.95691   0.17791
Cl    1.23045   2.12851   0.61210
H     4.07875   0.09410   1.83660
H     3.73055  -1.12086   3.10485
H     4.30031  -1.64331   1.49384
H     1.57550  -0.78758   2.27437
H    -0.51674  -1.45565   1.69327
H    -3.25405  -2.58091   0.22264
H    -3.73232  -0.91635  -0.19068
H    -3.14974  -1.29101   1.45953
H    -3.77635   3.10025  -0.61559
H    -2.10167   3.33882  -1.23912
H    -2.42987   3.45211   0.53010
27

C     3.67593  -0.92066   2.02889
N     2.29226  -1.01625   1.59442
C     1.97935  -0.98757   0.28872
O     2.80188  -1.05704  -0.62089
C     0.50517  -0.73604  -0.01713
N    -0.50831  -1.44457   0.67953
C    -1.63833  -1.10736  -0.03126
C    -3.01357  -1.49359   0.38411
C    -1.18651  -1.03676  -1.43729
O    -1.79546  -1.02799  -2.47886
O     0.19833  -0.98880  -1.37773
C    -1.30440   0.96950  -0.05365
O    -2.50268   1.53274  -0.26628
C    -2.66508   2.95389  -0.39833
C    -0.02383   0.98564   0.18097
Cl    1.23899   2.12753   0.61445
H     4.07861   0.09443   1.83656
H     3.73064  -1.12050   3.10487
H     4.30053  -1.64292   1.49388
H     1.57545  -0.78834   2.27445
H    -0.51613  -1.45839   1.69286
H    -3.25695  -2.58156   0.22458
H    -3.73184  -0.91660  -0.19041
H    -3.14896  -1.29059   1.45968
H    -3.77854   3.09936  -0.61605
H    -2.10389   3.33900  -1.23944
H    -2.43219   3.45168   0.52978
27

C     3.67597  -0.91974   2.02889
N     2.29263  -1.01727   1.59473
C     1.98005  -0.99192   0.28841
O     2.80403  -1.05614  -0.62080
C     0.50906  -0.76077  -0.02025
N    -0.50857  -1.44123   0.67869
C    -1.63870  -1.12226  -0.03474
C    -3.01445  -1.49723   0.38533
C    -1.18889  -1.04064  -1.43624
O    -1.79588  -1.02614  -2.48011
O     0.19765  -0.98926  -1.37537
C    -1.30281   0.99134  -0.05236
O    -2.50571   1.53143  -0.26906
C    -2.67239   2.95312  -0.39995
C    -0.02940   1.01437   0.18403
Cl    1.24753   2.12656   0.61680
H     4.07847   0.09476   1.83652
H     3.73073  -1.12015   3.10489
H     4.30074  -1.64253   1.49392
H     1.57541  -0.78910   2.27452
H    -0.51553  -1.46112   1.69245
H    -3.25985  -2.58221   0.22653
H    -3.73137  -0.91686  -0.19014
H    -3.14819  -1.29016   1.45984
H    -3.78074   3.09846  -0.61652
H    -2.10611   3.33918  -1.23977
H    -2.43451   3.45125   0.52946
27

C     3.67601  -0.91882   2.02889
N     2.29299  -1.01829   1.59504
C     1.98076  -0.99627   0.28811
O     2.80619  -1.05524  -0.62072
C     0.51295  -0.78550  -0.02337
N    -0.50882  -1.43789   0.67784
C    -1.63906  -1.13716  -0.03822
C    -3.01533  -1.50087   0.38655
C    -1.19126  -1.04453  -1.43519
O    -1.79629  -1.02429  -2.48135
O     0.19697  -0.98972  -1.37301
C    -1.30121   1.01319  -0.05107
O    -2.50875   1.53011  -0.27183
C    -2.67971   2.95234  -0.40157
C    -0.03497   1.04310   0.18709
Cl    1.25608   2.12558   0.61916
H     4.07833   0.09509   1.83648
H     3.73082  -1.11980   3.10491
H     4.30096  -1.64214   1.49396
H     1.57536  -0.78986   2.27460
H    -0.51492  -1.46386   1.69203
H    -3.26276  -2.58286   0.22847
H    -3.73089  -0.91711  -0.18987
H    -3.14742  -1.28974   1.45999
H    -3.78293   3.09756  -0.61698
H    -2.10834   3.33937  -1.24009
H    -2.43683   3.45083   0.52914
27

C     3.67605  -0.91790   2.02888
N     2.29336  -1.01930   1.59534
C     1.98146  -1.00062   0.28780
O     2.80834  -1.05433  -0.62064
C     0.51684  -0.81023  -0.02650
N    -0.50908  -1.43456   0.67700
C    -1.63943  -1.15206  -0.04170
C    -3.01622  -1.50452   0.38777
C    -1.19363  -1.04842  -1.43414
O    -1.79671  -1.02244  -2.48260
O     0.19628  -0.99018  -1.37065
C    -1.29962   1.03503  -0.04978
O    -2.51178   1.52879  -0.27460
C    -2.68702   2.95157  -0.40320
C    -0.04055   1.07182   0.19015
Cl    1.26462   2.12461   0.62151
H     4.07819   0.09542   1.83644
H     3.73092  -1.11945   3.10492
H     4.30117  -1.64175   1.49401
H     1.57532  -0.79062   2.27467
H    -0.51432  -1.46660   1.69162
H    -3.26566  -2.58352   0.23042
H    -3.73041  -0.91736  -0.18960
H    -3.14664  -1.28932   1.46015
H    -3.78512   3.09667  -0.61744
H    -2.11056   3.33955  -1.24042
H    -2.43915   3.45040   0.52882
27

C     3.67608  -0.91698   2.02888
N     2.29372  -1.02032   1.59565
C     1.98216  -1.00497   0.28749
O     2.81049  -1.05343  -0.62056
C     0.52073  -0.83496  -0.02962
N    -0.50934  -1.43122   0.67615
C    -1.63980  -1.16696  -0.04518
C    -3.01710  -1.50816   0.38899
C    -1.19601  -1.05231  -1.43309
O    -1.79713  -1.02058  -2.48384
O     0.19560  -0.99064  -1.36829
C    -1.29802   1.05688  -0.04849
O    -2.51482   1.52748  -0.27737
C    -2.69433   2.95080  -0.40482
C    -0.04612   1.10055   0.19321
Cl    1.27316   2.12363   0.62386
H     4.07805   0.09575   1.83640
H     3.73101  -1.11909   3.10494
H     4.30139  -1.64136   1.49405
H     1.57527  -0.79138   2.27475
H    -0.51372  -1.46933   1.69121
H    -3.26857  -2.58417   0.23236
H    -3.72993  -0.91761  -0.18932
H    -3.14587  -1.28889   1.46030
H    -3.78732   3.09577  -0.61791
H    -2.11278   3.33973  -1.24074
H    -2.44147   3.44998   0.52850
27

C     3.67612  -0.91606   2.02888
N     2.29409  -1.02134   1.59596
C     1.98286  -1.00932   0.28719
O     2.81264  -1.05253  -0.62048
C     0.52462  -0.85969  -0.03274
N    -0.50959  -1.42788   0.67530
C    -1.64017  -1.18187  -0.04866
C    -3.01798  -1.51180   0.39021
C    -1.19838  -1.05619  -1.43204
O    -1.79755  -1.01873  -2.48509
O     0.19492  -0.99110  -1.36593
C    -1.29643   1.07873  -0.04721
O    -2.51786   1.52616  -0.28014
C    -2.70164   2.95003  -0.40644
C    -0.05169   1.12928   0.19627
Cl    1.28170   2.12265   0.62621
H     4.07790   0.09609   1.83636
H     3.73110  -1.11874   3.10496
H     4.30160  -1.64097   1.49409
H     1.57523  -0.79214   2.27483
H    -0.51311  -1.47207   1.69079
H    -3.27147  -2.58482   0.23430
H    -3.72945  -0.91787  -0.18905
H    -3.14510  -1.28847   1.46045
H    -3.78951   3.09488  -0.61837
H    -2.11501   3.33992  -1.24107
H    -2.44379   3.44955   0.52818
27

C     3.67616  -0.91514   2.02887
N     2.29445  -1.02236   1.59626
C     1.98356  -1.01367   0.28688
O     2.81479  -1.05163  -0.62040
C     0.52851  -0.88443  -0.03586
N    -0.50985  -1.42455   0.67446
C    -1.64054  -1.19677  -0.05214
C    -3.01886  -1.51544   0.39143
C    -1.20075  -1.06008  -1.43099
O    -1.79796  -1.01688  -2.48633
O     0.19424  -0.99156  -1.36357
C    -1.29483   1.10057  -0.04592
O    -2.52089   1.52485  -0.28292
C    -2.70896   2.94926  -0.40806
C    -0.05726   1.15801   0.19934
Cl    1.29025   2.12168   0.62856
H     4.07776   0.09642   1.83632
H     3.73119  -1.11839   3.10498
H     4.30182  -1.64057   1.49413
H     1.57518  -0.79290   2.27490
H    -0.51251  -1.47481   1.69038
H    -3.27437  -2.58547   0.23625
H    -3.72897  -0.91812  -0.18878
H    -3.14433  -1.28804   1.46061
H    -3.79170   3.09398  -0.61883
H    -2.11723   3.34010  -1.24139
H    -2.44611   3.44912   0.52786
27

C     3.67620  -0.91422   2.02887
N     2.29482  -1.02337   1.59657
C     1.98426  -1.01802   0.28658
O     2.81694  -1.05072  -0.62032
C     0.53240  -0.90916  -0.03899
N    -0.51011  -1.42121   0.67361
C    -1.64090  -1.21167  -0.05561
C    -3.01975  -1.51908   0.39265
C    -1.20313  -1.06397  -1.42995
O    -1.79838  -1.01502  -2.48757
O     0.19355  -0.99202  -1.36121
C    -1.29324   1.12242  -0.04463
O    -2.52393   1.52353  -0.28569
C    -2.71627   2.94849  -0.40968
C    -0.06283   1.18674   0.20240
Cl    1.29879   2.12070   0.63092
H     4.07762   0.09675   1.83628
H     3.73128  -1.11804   3.10500
H     4.30203  -1.64018   1.49418
H     1.57514  -0.79366   2.27498
H    -0.51191  -1.47754   1.68997
H    -3.27728  -2.58613   0.23819
H    -3.72850  -0.91837  -0.18851
H    -3.14355  -1.28762   1.46076
H    -3.79389   3.09308  -0.61930
H    -2.11945   3.34028  -1.24172
H    -2.44843   3.44870   0.52754
27

C     3.67623  -0.91330   2.02887
N     2.29518  -1.02439   1.59688
C     1.98497  -1.02237   0.28627
O     2.81909  -1.04982  -0.62024
C     0.53629  -0.93389  -0.04211
N    -0.51036  -1.41787   0.67277
C    -1.64127  -1.22657  -0.05909
C    -3.02063  -1.52272   0.39387
C    -1.20550  -1.06785  -1.42890
O    -1.79880  -1.01317  -2.48882
O     0.19287  -0.99248  -1.35885
C    -1.29164   1.14426  -0.04334
O    -2.52696   1.52221  -0.28846
C    -2.72358   2.94772  -0.41131
C    -0.06841   1.21547   0.20546
Cl    1.30733   2.11973   0.63327
H     4.07748   0.09708   1.83624
H     3.73138  -1.11769   3.10501
H     4.30225  -1.63979   1.49422
H     1.57509  -0.79442   2.27506
H    -0.51130  -1.48028   1.68955
H    -3.28018  -2.58678   0.24013
H    -3.72802  -0.91862  -0.18824
H    -3.14278  -1.28720   1.46092
H    -3.79609   3.09219  -0.61976
H    -2.12168   3.34047  -1.24204
H    -2.45075   3.44827   0.52721
27

C     3.67627  -0.91238   2.02886
N     2.29555  -1.02541   1.59718
C     1.98567  -1.02672   0.28596
O     2.82124  -1.04892  -0.62016
C     0.54018  -0.95862  -0.04523
N    -0.51062  -1.41454   0.67192
C    -1.64164  -1.24148  -0.06257
C    -3.02151  -1.52636   0.39509
C    -1.20788  -1.07174  -1.42785
O    -1.79921  -1.01132  -2.49006
O     0.19219  -0.99294  -1.35649
C    -1.29005   1.16611  -0.04205
O    -2.53000   1.52090  -0.29123
C    -2.73089   2.94695  -0.41293
C    -0.07398   1.24419   0.20852
Cl    1.31587   2.11875   0.63562
H     4.07734   0.09741   1.83620
H     3.73147  -1.11733   3.10503
H     4.30246  -1.63940   1.49426
H     1.57505  -0.79518   2.27513
H    -0.51070  -1.48302   1.68914
H    -3.28309  -2.58743   0.24208
H    -3.72754  -0.91887  -0.18797
H    -3.14201  -1.28677   1.46107
H    -3.79828   3.09129  -0.62023
H    -2.12390   3.34065  -1.24237
H    -2.45307   3.44784   0.52689
27

C     3.67631  -0.91146   2.02886
N     2.29591  -1.02643   1.59749
C     1.98637  -1.03107   0.28566
O     2.82340  -1.04801  -0.62008
C     0.54407  -0.98335  -0.04835
N    -0.51088  -1.41120   0.67108
C    -1.64201  -1.25638  -0.06605
C    -3.02240  -1.53000   0.39631
C    -1.21025  -1.07563  -1.42680
O    -1.79963  -1.00947  -2.49131
O     0.19151  -0.99340  -1.35413
C    -1.28845   1.18796  -0.04076
O    -2.53303   1.51958  -0.29401
C    -2.73821   2.94618  -0.41455
C    -0.07955   1.27292   0.21158
Cl    1.32441   2.11778   0.63797
H     4.07720   0.09774   1.83616
H     3.73156  -1.11698   3.10505
H     4.30268  -1.63901   1.49430
H     1.57500  -0.79594   2.27521
H    -0.51009  -1.48575   1.68873
H    -3.28599  -2.58808   0.24402
H    -3.72706  -0.91913  -0.18769
H    -3.14123  -1.28635   1.46123
H    -3.80047   3.09040  -0.62069
H    -2.12612   3.34083  -1.24269
H    -2.45539   3.44742   0.52657
27

C     3.67635  -0.91054   2.02886
N     2.29628  -1.02745   1.59780
C     1.98707  -1.03542   0.28535
O     2.82555  -1.04711  -0.62000
C     0.54796  -1.00808  -0.05147
N    -0.51113  -1.40786   0.67023
C    -1.64238  -1.27128  -0.06953
C    -3.02328  -1.53364   0.39753
C    -1.21262  -1.07952  -1.42575
O    -1.80005  -1.00761  -2.49255
O     0.19083  -0.99386  -1.35176
C    -1.28686   1.20980  -0.03948
O    -2.53607   1.51827  -0.29678
C    -2.74552   2.94541  -0.41617
C    -0.08512   1.30165   0.21464
Cl    1.33296   2.11680   0.64033
H     4.07706   0.09807   1.83612
H     3.73165  -1.11663   3.10507
H     4.30289  -1.63862   1.49435
H     1.57496  -0.79670   2.27529
H    -0.50949  -1.48849   1.68831
H    -3.28889  -2.58874   0.24596
H    -3.72658  -0.91938  -0.18742
H    -3.14046  -1.28592   1.46138
H    -3.80266   3.08950  -0.62115
H    -2.12835   3.34102  -1.24301
H    -2.45771   3.44699   0.52625
27

C     3.67638  -0.90962   2.02885
N     2.29665  -1.02846   1.59810
C     1.98777  -1.03977   0.28504
O     2.82770  -1.04621  -0.61992
C     0.55185  -1.03281  -0.05460
N    -0.51139  -1.40452   0.66939
C    -1.64275  -1.28618  -0.07301
C    -3.02416  -1.53729   0.39875
C    -1.21500  -1.08340  -1.42470
O    -1.80046  -1.00576  -2.49379
O     0.19014  -0.99432  -1.34940
C    -1.28526   1.23165  -0.03819
O    -2.53910   1.51695  -0.29955
C    -2.75283   2.94464  -0.41780
C    -0.09070   1.33038   0.21770
Cl    1.34150   2.11583   0.64268
H     4.07691   0.09840   1.83608
H     3.73175  -1.11628   3.10509
H     4.30311  -1.63823   1.49439
H     1.57491  -0.79746   2.27536
H    -0.50889  -1.49123   1.68790
H    -3.29180  -2.58939   0.24791
H    -3.72611  -0.91963  -0.18715
H    -3.13969  -1.28550   1.46153
H    -3.80486   3.08861  -0.62162
H    -2.13057   3.34120  -1.24334
H    -2.46003   3.44657   0.52593
27

C     3.67642  -0.90870   2.02885
N     2.29701  -1.02948   1.59841
C     1.98847  -1.04412   0.28474
O     2.82985  -1.04531  -0.61983
C     0.55574  -1.05754  -0.05772
N    -0.51164  -1.40119   0.66854
C    -1.64311  -1.30108  -0.07649
C    -3.02504  -1.54093   0.39997
C    -1.21737  -1.08729  -1.42365
O    -1.80088  -1.00391  -2.49504
O     0.18946  -0.99478  -1.34704
C    -1.28367   1.25350  -0.03690
O    -2.54214   1.51563  -0.30232
C    -2.76014   2.94387  -0.41942
C    -0.09627   1.35911   0.22076
Cl    1.35004   2.11485   0.64503
H     4.07677   0.09873   1.83604
H     3.73184  -1.11592   3.10510
H     4.30332  -1.63784   1.49443
H     1.57487  -0.79822   2.27544
H    -0.50828  -1.49397   1.68749
H    -3.29470  -2.59004   0.24985
H    -3.72563  -0.91988  -0.18688
H    -3.13892  -1.28507   1.46169
H    -3.80705   3.08771  -0.62208
H    -2.13279   3.34138  -1.24366
H    -2.46235   3.44614   0.52561
27

C     3.67646  -0.90778   2.02885
N     2.29738  -1.03050   1.59872
C     1.98917  -1.04847   0.28443
O     2.83200  -1.04440  -0.61975
C     0.55963  -1.08227  -0.06084
N    -0.51190  -1.39785   0.66769
C    -1.64348  -1.31599  -0.07997
C    -3.02593  -1.54457   0.40119
C    -1.21974  -1.09118  -1.42260
O    -1.80130  -1.00205  -2.49628
O     0.18878  -0.99524  -1.34468
C    -1.28207   1.27534  -0.03561
O    -2.54517   1.51432  -0.30509
C    -2.76745   2.94310  -0.42104
C    -0.10184   1.38784   0.22382
Cl    1.35858   2.11387   0.64738
H     4.07663   0.09906   1.83600
H     3.73193  -1.11557   3.10512
H     4.30354  -1.63745   1.49447
H     1.57482  -0.79898   2.27552
H    -0.50768  -1.49670   1.68707
H    -3.29761  -2.59069   0.25179
H    -3.72515  -0.92014  -0.18661
H    -3.13814  -1.28465   1.46184
H    -3.80924   3.08681  -0.62254
H    -2.13502   3.34157  -1.24399
H    -2.46467   3.44571   0.52529
27

C     3.67650  -0.90686   2.02884
N     2.29774  -1.03152   1.59902
C     1.98988  -1.05282   0.28412
O     2.83415  -1.04350  -0.61967
C     0.56352  -1.10700  -0.06396
N    -0.51216  -1.39451   0.66685
C    -1.64385  -1.33089  -0.08345
C    -3.02681  -1.54821   0.40241
C    -1.22212  -1.09507  -1.42155
O    -1.80171  -1.00020  -2.49753
O     0.18810  -0.99570  -1.34232
C    -1.28048   1.29719  -0.03432
O    -2.54821   1.51300  -0.30787
C    -2.77477   2.94233  -0.42266
C    -0.10741   1.41656   0.22688
Cl    1.36713   2.11290   0.64974
H     4.07649   0.09939   1.83596
H     3.73202  -1.11522   3.10514
H     4.30375  -1.63705   1.49451
H     1.57478  -0.79974   2.27559
H    -0.50708  -1.49944   1.68666
H    -3.30051  -2.59134   0.25374
H    -3.72467  -0.92039  -0.18634
H    -3.13737  -1.28423   1.46200
H    -3.81143   3.08592  -0.62301
H    -2.13724   3.34175  -1.24431
H    -2.46699   3.44529   0.52497
27

C     3.67653  -0.90594   2.02884
N     2.29811  -1.03253   1.59933
C     1.99058  -1.05717   0.28382
O     2.83630  -1.04260  -0.61959
C     0.56741  -1.13173  -0.06709
N    -0.51241  -1.39118   0.66600
C    -1.64422  -1.34579  -0.08693
C    -3.02769  -1.55185   0.40363
C    -1.22449  -1.09895  -1.42050
O    -1.80213  -0.99835  -2.49877
O     0.18741  -0.99616  -1.33996
C    -1.27888   1.31903  -0.03304
O    -2.55124   1.51169  -0.31064
C    -2.78208   2.94155  -0.42428
C    -0.11298   1.44529   0.22994
Cl    1.37567   2.11192   0.65209
H     4.07635   0.09972   1.83592
H     3.73211  -1.11487   3.10516
H     4.30397  -1.63666   1.49456
H     1.57473  -0.80050   2.27567
H    -0.50647  -1.50218   1.68625
H    -3.30342  -2.59200   0.25568
H    -3.72419  -0.92064  -0.18607
H    -3.13660  -1.28380   1.46215
H    -3.81363   3.08502  -0.62347
H    -2.13946   3.34193  -1.24464
H    -2.46931   3.44486   0.52465
27

C     3.67657  -0.90502   2.02884
N     2.29847  -1.03355   1.59963
C     1.99128  -1.06152   0.28351
O     2.83845  -1.04170  -0.61951
C     0.57130  -1.15646  -0.07021
N    -0.51267  -1.38784   0.66516
C    -1.64459  -1.36069  -0.09041
C    -3.02857  -1.55549   0.40485
C    -1.22687  -1.10284  -1.41945
O    -1.80255  -0.99650  -2.50002
O     0.18673  -0.99662  -1.33760
C    -1.27729   1.34088  -0.03175
O    -2.55428   1.51037  -0.31341
C    -2.78939   2.94078  -0.42591
C    -0.11856   1.47402   0.23300
Cl    1.38421   2.11095   0.65444
H     4.07621   0.10005   1.83588
H     3.73221  -1.11452   3.10518
H     4.30418  -1.63627   1.49460
H     1.57469  -0.80126   2.27575
H    -0.50587  -1.50491   1.68583
H    -3.30632  -2.59265   0.25763
H    -3.72372  -0.92089  -0.18579
H    -3.13582  -1.28338   1.46230
H    -3.81582   3.08413  -0.62393
H    -2.14169   3.34212  -1.24496
H    -2.47163   3.44444   0.52433
27

C     3.67661  -0.90410   2.02883
N     2.29884  -1.03457   1.59994
C     1.99198  -1.06587   0.28321
O     2.84060  -1.04079  -0.61943
C     0.57519  -1.18120  -0.07333
N    -0.51293  -1.38450   0.66431
C    -1.64495  -1.37559  -0.09389
C    -3.02946  -1.55913   0.40607
C    -1.22924  -1.10673  -1.41840
O    -1.80296  -0.99464  -2.50126
O     0.18605  -0.99708  -1.33524
C    -1.27569   1.36273  -0.03046
O    -2.55732   1.50905  -0.31618
C    -2.79670   2.94001  -0.42753
C    -0.12413   1.50275   0.23606
Cl    1.39275   2.10997   0.65679
H     4.07606   0.10038   1.83584
H     3.73230  -1.11416   3.10519
H     4.30440  -1.63588   1.49464
H     1.57464  -0.80202   2.27582
H    -0.50526  -1.50765   1.68542
H    -3.30922  -2.59330   0.25957
H    -3.72324  -0.92114  -0.18552
H    -3.13505  -1.28295   1.46246
H    -3.81801   3.08323  -0.62440
H    -2.14391   3.34230  -1.24529
H    -2.47395   3.44401   0.52401
