13

C -1.693066409 -2.210594591 -0.816485746
C -0.060420006 0.058817688 -0.256910194
C 2.582164579 -0.057400355 -1.320942504
O -0.670853001 2.301700423 4.157624733
C -0.697456924 1.784513090 1.716731487
N -1.393931418 2.684989510 -0.343673757
H -0.863646659 -3.925679030 -0.019276000
H -3.584495668 -1.980983872 -0.035437108
H -1.858308747 -2.480318300 -2.857516761
H 3.634451806 1.661500707 -0.899177176
H 2.509917590 -0.291790268 -3.371770464
H 3.616018321 -1.664906882 -0.538863020
H -1.462315391 3.926910394 4.411271029

