13

C -1.724299783 -1.857964231 -0.218027303
C 0.006209621 0.371658560 0.389498028
C 2.585066442 0.093389207 -0.856500243
O 0.458220885 0.559668300 3.016569378
C -1.213583572 2.737264361 -0.512596413
N -2.198416912 4.546251786 -1.188961669
H -0.837784339 -3.588392302 0.464053298
H -3.556052323 -1.639563462 0.705350707
H -2.044752396 -2.014667068 -2.247500772
H 3.784327837 1.694576111 -0.373593034
H 2.398003644 -0.015284993 -2.904526401
H 3.467120111 -1.633338477 -0.160531157
H -1.124059214 0.746402248 3.886765582

