12

O 1.778649667 2.799647943 1.026516465
C 3.204893342 0.667988006 0.468595727
C 1.889008199 -1.409542786 -0.288765685
O 2.227330194 -3.607838113 -0.950313713
N -0.774315298 -0.432235034 -0.195436118
C -2.635433672 -1.841789895 -0.784782246
C -0.754586803 2.182300118 0.624612499
H 5.213258400 0.879078030 0.695668488
H -4.555708013 -1.142538846 -0.719389842
H -2.142823418 -3.753163627 -1.341994393
H -1.556683230 3.389310807 -0.844990470
H -1.821966839 2.377482352 2.380259645

