12

O 3.248206451 2.296294389 2.592209418
C 3.665370485 0.842085998 0.916943152
C 1.732583454 -1.090383993 -0.025793004
O 2.431255945 -3.150983726 -0.656761483
N -0.807005387 -0.374659501 -0.030401120
C -2.731060749 -1.896970371 -0.715542095
C -1.758475064 2.034784355 -0.046926794
H 5.546913056 0.603345067 0.042751104
H -4.453746215 -1.772076992 0.356131190
H -2.488282645 -3.250842524 -2.232403504
H -2.749070368 2.628414662 -1.721784406
H -1.565070232 3.239691590 1.591563568

