11

N -3.947936054 1.485673710 2.349534002
C -2.057599529 -0.137703984 2.233648928
O -0.698806661 0.426753355 0.169716757
C 1.442765475 -1.061856328 -0.184532210
C 2.767013072 -0.830974881 -2.571055295
O 3.710740843 0.255932034 -0.279171848
H -5.176406360 1.342828518 3.784366369
H -4.203677490 2.884901123 1.067874576
H 1.398561852 -2.770665232 0.947560249
H 3.850173681 -2.406013116 -3.315321982
H 2.072145431 0.526915661 -3.942489259

