14

N 5.621578894 0.218950302 0.884724645
C 3.764772970 1.155628903 0.057133621
O 1.457967074 -2.127417313 -0.573250083
C -0.825609079 -1.321577754 -1.594498067
C -2.871092459 -1.056197940 0.475064638
C -1.567345216 1.450204854 1.271899160
C 0.063491207 1.248648858 -1.076421827
H 6.065162546 -1.606731587 1.214599470
H -1.308829322 -2.070413157 -3.459693166
H -2.881234204 -2.587972406 1.849814939
H -4.771087469 -0.749850488 -0.263983307
H -0.543248715 1.416311029 3.051420028
H -2.765191735 3.129388749 1.229685947
H 0.513941973 2.764924206 -2.363612405

