9

N 3.294741051 -0.695568068 0.331520663
C 0.981227648 -1.689706967 0.069137029
C -1.548570598 2.302621003 0.628201618
O -3.440961520 0.940184403 0.193979253
N -4.312354204 -1.099345603 -0.265666183
N -0.704258389 -3.051679545 -0.305546453
H 4.643764148 -1.930136576 0.858342160
H 3.360219645 1.010792621 1.156602642
H -2.183887073 4.258101433 0.881017777

