11

C -2.095469773 0.239417850 -2.121215515
C -1.832981013 2.508858323 -0.369162118
H -0.517137406 3.906655233 -1.124509914
H -3.653563041 3.444033175 -0.090995264
H -1.139981102 1.932964230 1.489564127
C -3.905991769 -1.749322686 -1.093967310
H -4.078798133 -3.356226201 -2.376011635
H -3.257503166 -2.467950949 0.730743260
H -5.794745724 -0.960652971 -0.816019570
H -0.237105505 -0.613747405 -2.427785539
H -2.748843960 0.874718583 -3.977248938

