16

C -1.247394288 -2.131104849 1.064150550
C -2.310127826 0.177556323 -0.307968704
C -0.881515380 2.632440043 0.074506591
O 1.232582690 2.800692980 -1.659062053
C 3.434191765 3.209113252 -0.703384674
C 1.405692318 -2.925073658 0.270868467
H -2.551379221 -3.704054123 0.751072423
H -1.273516463 -1.766685509 3.100906494
H -2.439592736 -0.185391298 -2.340708659
H -4.246602695 0.496589488 0.340896407
H -0.121793983 2.844433262 1.981703630
H -2.076533489 4.249679944 -0.379276291
H 2.818769552 -1.531919579 0.833736187
H 4.670757544 3.272928887 -2.407101201
H 1.920853523 -4.718622700 1.148793651
H 1.535882769 -3.163965162 -1.776481962

