16

C 3.854233455 -0.191102315 -0.001138522
C 1.150430872 0.790060383 0.294305663
C -0.772684276 -1.165944881 -0.592435849
N -3.311699680 -0.279430816 -0.104873299
C -4.830295026 -0.140317777 -1.924533179
C 0.716639232 1.441328206 3.042970496
O 0.953866851 3.517787580 3.916424436
H 4.179825707 -1.849030154 1.188330633
H 5.218708824 1.257395776 0.531336260
H 4.221382335 -0.734596789 -1.956824989
H 0.923107760 2.535380913 -0.786129639
H -0.451326919 -1.618584535 -2.595664197
H -0.506452289 -2.910170030 0.492148990
H 0.235763233 -0.190672459 4.276891036
H -6.744619962 0.533602646 -1.592508771
H -4.323972542 -0.671630982 -3.865086001

