14

C -3.078990396 0.806461052 -1.025235760
C -0.906960731 -0.664202752 0.050091840
C 1.603099930 -0.026137312 -1.051994112
C 3.489186008 1.425392901 0.364480284
O 3.771135772 -1.205071622 -0.041021816
C -1.144126367 -2.399735389 1.840587066
H -3.255810727 0.482729518 -3.058779019
H -2.796993841 2.836597871 -0.759019553
H -4.855559928 0.273751282 -0.132126098
H 1.628223612 0.156519722 -3.103659863
H 3.056059193 1.965600254 2.297388294
H 4.828636735 2.618679247 -0.633658637
H 0.488074306 -3.419102926 2.535746386
H -2.972056974 -2.844467182 2.648628495

