13

C -1.802912201 -3.247837293 0.700416595
N 0.324414934 -1.999316596 1.125976682
C 1.035421478 -0.702941571 3.166176917
H -0.222442950 -0.641819324 4.765556770
H 2.899122219 0.095252174 3.235747070
C 2.108965819 -2.016093773 -1.037995814
O 2.377678865 -3.899780919 -2.227421449
C 3.401085842 0.442810282 -1.584251386
H 4.184260460 0.338114995 -3.480339520
H 4.942349701 0.749412733 -0.250546277
H 2.089881966 2.018061451 -1.403619269
H -2.010972540 -4.220083412 -1.069495187
H -3.186045516 -3.351761552 2.191944336

