18

C -3.659993741 2.292920925 -0.331661013
C -2.215944160 -2.007713065 0.242460914
N 0.177594685 -1.300966852 0.625609273
C 0.488521377 0.711262904 2.323271779
C 1.951816383 -1.779029256 -1.361512618
O 1.420370671 -3.209118051 -3.036155388
C 4.466814219 -0.471354142 -1.198516691
H -5.510501265 1.406186934 -0.208493918
H -3.114888786 2.432068149 -2.313775357
H -3.858966047 4.208915036 0.424088595
H -2.610567616 -3.187213178 -1.374735637
H -3.448732811 -2.055878083 1.862270199
H -0.381481999 0.346942586 4.148982845
H 2.399964877 1.415205822 2.497678514
H -1.543836853 1.968002984 1.145136483
H 5.605505790 -1.113657614 -2.780797944
H 5.424082294 -0.913023199 0.570860845
H 4.230074602 1.573374066 -1.305093711

