26

C    -0.05987  -3.03370  -0.22096
N    -0.26783  -1.67926  -0.65842
N    -1.35531  -1.15557  -0.36095
C    -1.75881   0.09938  -0.76385
C    -2.79063   0.73349  -0.05113
N    -3.64237   1.29070   0.53215
C    -1.23382   0.70666  -1.92432
N    -0.95820   1.20314  -2.94722
C     0.27497   0.99861   0.85516
C     1.33314   1.83227   0.11750
C     1.67588   1.22220  -1.25370
C     2.26685   0.05787  -0.97551
C     2.29658  -0.01658   0.55646
O     2.49980   1.38910   0.87988
C     0.84983  -0.14454   1.12902
C     0.44942  -1.12028   2.07862
N     0.15220  -1.86669   2.92656
H    -0.64582  -3.29868   0.66688
H    -0.30415  -3.63127  -1.06494
H     1.03344  -3.17874   0.01836
H    -2.03651  -1.63493   0.23393
H    -0.65334   1.38051   1.31315
H     1.14272   2.89050   0.16923
H     1.44241   1.66204  -2.22756
H     2.64888  -0.70532  -1.66314
H     3.01600  -0.67454   1.02233
26

C    -0.05539  -3.02939  -0.21800
N    -0.25705  -1.67044  -0.64534
N    -1.35600  -1.15388  -0.36299
C    -1.74054   0.10972  -0.75040
C    -2.78470   0.73815  -0.04785
N    -3.64206   1.28941   0.53012
C    -1.23132   0.70961  -1.92222
N    -0.96030   1.20162  -2.94748
C     0.26129   0.99131   0.84073
C     1.32702   1.82891   0.11467
C     1.67655   1.22255  -1.25490
C     2.26844   0.05838  -0.97683
C     2.29269  -0.01970   0.55384
O     2.48720   1.38431   0.88322
C     0.84274  -0.15980   1.11342
C     0.44957  -1.12091   2.07766
N     0.15317  -1.86425   2.92836
H    -0.64361  -3.29798   0.66828
H    -0.30543  -3.62789  -1.06460
H     1.03466  -3.17957   0.01751
H    -2.03511  -1.63238   0.23628
H    -0.64957   1.37932   1.31767
H     1.14059   2.88941   0.16925
H     1.44334   1.66229  -2.22804
H     2.64988  -0.70474  -1.66371
H     3.01482  -0.67501   1.02220
26

C    -0.05090  -3.02508  -0.21504
N    -0.24626  -1.66162  -0.63225
N    -1.35670  -1.15219  -0.36502
C    -1.72226   0.12006  -0.73695
C    -2.77877   0.74281  -0.04458
N    -3.64175   1.28812   0.52808
C    -1.22882   0.71255  -1.92012
N    -0.96240   1.20011  -2.94775
C     0.24761   0.98400   0.82631
C     1.32090   1.82555   0.11184
C     1.67722   1.22291  -1.25610
C     2.27003   0.05890  -0.97816
C     2.28879  -0.02282   0.55123
O     2.47461   1.37951   0.88657
C     0.83565  -0.17507   1.09781
C     0.44973  -1.12155   2.07670
N     0.15414  -1.86181   2.93017
H    -0.64140  -3.29727   0.66969
H    -0.30671  -3.62451  -1.06426
H     1.03589  -3.18039   0.01665
H    -2.03371  -1.62982   0.23863
H    -0.64580   1.37813   1.32219
H     1.13847   2.88831   0.16927
H     1.44426   1.66254  -2.22851
H     2.65087  -0.70416  -1.66428
H     3.01364  -0.67548   1.02208
26

C    -0.04641  -3.02078  -0.21208
N    -0.23548  -1.65280  -0.61917
N    -1.35739  -1.15050  -0.36705
C    -1.70398   0.13040  -0.72350
C    -2.77285   0.74747  -0.04130
N    -3.64144   1.28683   0.52605
C    -1.22633   0.71550  -1.91801
N    -0.96451   1.19859  -2.94802
C     0.23393   0.97670   0.81188
C     1.31478   1.82219   0.10900
C     1.67788   1.22327  -1.25730
C     2.27162   0.05942  -0.97949
C     2.28490  -0.02594   0.54861
O     2.46202   1.37472   0.88991
C     0.82855  -0.19033   1.08221
C     0.44988  -1.12218   2.07574
N     0.15511  -1.85937   2.93198
H    -0.63919  -3.29657   0.67109
H    -0.30799  -3.62113  -1.06393
H     1.03711  -3.18122   0.01580
H    -2.03230  -1.62726   0.24098
H    -0.64203   1.37693   1.32671
H     1.13634   2.88722   0.16929
H     1.44518   1.66279  -2.22899
H     2.65187  -0.70359  -1.66484
H     3.01246  -0.67595   1.02195
26

C    -0.04193  -3.01647  -0.20912
N    -0.22470  -1.64398  -0.60609
N    -1.35808  -1.14881  -0.36908
C    -1.68571   0.14074  -0.71004
C    -2.76692   0.75213  -0.03803
N    -3.64112   1.28553   0.52401
C    -1.22383   0.71845  -1.91591
N    -0.96661   1.19708  -2.94829
C     0.22024   0.96940   0.79745
C     1.30866   1.81883   0.10617
C     1.67855   1.22363  -1.25850
C     2.27321   0.05993  -0.98081
C     2.28100  -0.02906   0.54600
O     2.44943   1.36992   0.89325
C     0.82146  -0.20559   1.06661
C     0.45003  -1.12282   2.07479
N     0.15608  -1.85693   2.93379
H    -0.63698  -3.29586   0.67250
H    -0.30927  -3.61774  -1.06359
H     1.03833  -3.18204   0.01494
H    -2.03090  -1.62470   0.24333
H    -0.63826   1.37574   1.33123
H     1.13422   2.88613   0.16931
H     1.44610   1.66304  -2.22947
H     2.65287  -0.70301  -1.66541
H     3.01128  -0.67641   1.02182
26

C    -0.03744  -3.01216  -0.20616
N    -0.21391  -1.63516  -0.59300
N    -1.35877  -1.14711  -0.37111
C    -1.66743   0.15109  -0.69659
C    -2.76099   0.75679  -0.03476
N    -3.64081   1.28424   0.52198
C    -1.22134   0.72140  -1.91381
N    -0.96871   1.19556  -2.94856
C     0.20656   0.96210   0.78302
C     1.30254   1.81547   0.10334
C     1.67921   1.22398  -1.25970
C     2.27479   0.06045  -0.98214
C     2.27711  -0.03218   0.54338
O     2.43684   1.36513   0.89659
C     0.81437  -0.22085   1.05101
C     0.45019  -1.12346   2.07383
N     0.15705  -1.85449   2.93560
H    -0.63477  -3.29515   0.67390
H    -0.31055  -3.61436  -1.06325
H     1.03956  -3.18287   0.01409
H    -2.02950  -1.62214   0.24568
H    -0.63449   1.37455   1.33575
H     1.13209   2.88503   0.16933
H     1.44702   1.66329  -2.22994
H     2.65387  -0.70243  -1.66598
H     3.01010  -0.67688   1.02169
26

C    -0.03296  -3.00785  -0.20320
N    -0.20313  -1.62634  -0.57992
N    -1.35947  -1.14542  -0.37314
C    -1.64916   0.16143  -0.68314
C    -2.75506   0.76145  -0.03148
N    -3.64050   1.28295   0.51994
C    -1.21884   0.72435  -1.91171
N    -0.97082   1.19405  -2.94883
C     0.19288   0.95480   0.76859
C     1.29642   1.81211   0.10050
C     1.67988   1.22434  -1.26090
C     2.27638   0.06097  -0.98347
C     2.27321  -0.03530   0.54077
O     2.42425   1.36034   0.89993
C     0.80727  -0.23612   1.03541
C     0.45034  -1.12409   2.07287
N     0.15802  -1.85206   2.93741
H    -0.63256  -3.29445   0.67531
H    -0.31182  -3.61098  -1.06291
H     1.04078  -3.18369   0.01323
H    -2.02810  -1.61958   0.24803
H    -0.63072   1.37336   1.34027
H     1.12996   2.88394   0.16935
H     1.44794   1.66354  -2.23042
H     2.65486  -0.70185  -1.66655
H     3.00892  -0.67735   1.02156
26

C    -0.02847  -3.00354  -0.20024
N    -0.19235  -1.61752  -0.56683
N    -1.36016  -1.14373  -0.37517
C    -1.63088   0.17177  -0.66969
C    -2.74913   0.76611  -0.02821
N    -3.64019   1.28166   0.51791
C    -1.21634   0.72729  -1.90960
N    -0.97292   1.19253  -2.94910
C     0.17919   0.94749   0.75416
C     1.29030   1.80875   0.09767
C     1.68055   1.22470  -1.26210
C     2.27797   0.06148  -0.98479
C     2.26932  -0.03842   0.53816
O     2.41165   1.35554   0.90328
C     0.80018  -0.25138   1.01981
C     0.45049  -1.12473   2.07191
N     0.15898  -1.84962   2.93921
H    -0.63035  -3.29374   0.67671
H    -0.31310  -3.60760  -1.06258
H     1.04201  -3.18452   0.01238
H    -2.02670  -1.61703   0.25038
H    -0.62695   1.37217   1.34479
H     1.12784   2.88285   0.16937
H     1.44886   1.66379  -2.23089
H     2.65586  -0.70127  -1.66712
H     3.00774  -0.67782   1.02143
26

C    -0.02399  -2.99923  -0.19728
N    -0.18157  -1.60870  -0.55375
N    -1.36085  -1.14204  -0.37721
C    -1.61261   0.18211  -0.65623
C    -2.74320   0.77077  -0.02494
N    -3.63988   1.28036   0.51588
C    -1.21385   0.73024  -1.90750
N    -0.97502   1.19102  -2.94937
C     0.16551   0.94019   0.73973
C     1.28418   1.80539   0.09484
C     1.68121   1.22505  -1.26330
C     2.27956   0.06200  -0.98612
C     2.26542  -0.04154   0.53554
O     2.39906   1.35075   0.90662
C     0.79309  -0.26664   1.00421
C     0.45065  -1.12536   2.07096
N     0.15995  -1.84718   2.94102
H    -0.62813  -3.29304   0.67812
H    -0.31438  -3.60422  -1.06224
H     1.04323  -3.18534   0.01152
H    -2.02529  -1.61447   0.25272
H    -0.62318   1.37098   1.34932
H     1.12571   2.88176   0.16939
H     1.44978   1.66404  -2.23137
H     2.65686  -0.70070  -1.66769
H     3.00657  -0.67829   1.02130
26

C    -0.01950  -2.99493  -0.19432
N    -0.17078  -1.59988  -0.54067
N    -1.36154  -1.14035  -0.37924
C    -1.59433   0.19245  -0.64278
C    -2.73727   0.77543  -0.02166
N    -3.63957   1.27907   0.51384
C    -1.21135   0.73319  -1.90540
N    -0.97712   1.18950  -2.94963
C     0.15183   0.93289   0.72530
C     1.27806   1.80203   0.09201
C     1.68188   1.22541  -1.26450
C     2.28115   0.06251  -0.98744
C     2.26153  -0.04466   0.53293
O     2.38647   1.34595   0.90996
C     0.78599  -0.28190   0.98860
C     0.45080  -1.12600   2.07000
N     0.16092  -1.84474   2.94283
H    -0.62592  -3.29233   0.67952
H    -0.31566  -3.60083  -1.06190
H     1.04445  -3.18617   0.01067
H    -2.02389  -1.61191   0.25507
H    -0.61941   1.36979   1.35384
H     1.12359   2.88066   0.16942
H     1.45071   1.66429  -2.23184
H     2.65786  -0.70012  -1.66826
H     3.00539  -0.67876   1.02117
26

C    -0.01502  -2.99062  -0.19136
N    -0.16000  -1.59106  -0.52758
N    -1.36224  -1.13866  -0.38127
C    -1.57606   0.20279  -0.62933
C    -2.73134   0.78010  -0.01839
N    -3.63925   1.27778   0.51181
C    -1.20886   0.73614  -1.90330
N    -0.97923   1.18799  -2.94990
C     0.13815   0.92559   0.71087
C     1.27194   1.79867   0.08917
C     1.68254   1.22577  -1.26569
C     2.28274   0.06303  -0.98877
C     2.25763  -0.04778   0.53031
O     2.37388   1.34116   0.91330
C     0.77890  -0.29716   0.97300
C     0.45095  -1.12663   2.06904
N     0.16189  -1.84230   2.94464
H    -0.62371  -3.29162   0.68093
H    -0.31694  -3.59745  -1.06156
H     1.04568  -3.18699   0.00982
H    -2.02249  -1.60935   0.25742
H    -0.61564   1.36860   1.35836
H     1.12146   2.87957   0.16944
H     1.45163   1.66455  -2.23232
H     2.65885  -0.69954  -1.66883
H     3.00421  -0.67923   1.02104
26

C    -0.01053  -2.98631  -0.18840
N    -0.14922  -1.58224  -0.51450
N    -1.36293  -1.13697  -0.38330
C    -1.55778   0.21314  -0.61588
C    -2.72542   0.78476  -0.01512
N    -3.63894   1.27649   0.50977
C    -1.20636   0.73908  -1.90120
N    -0.98133   1.18647  -2.95017
C     0.12446   0.91829   0.69644
C     1.26582   1.79531   0.08634
C     1.68321   1.22613  -1.26689
C     2.28433   0.06355  -0.99010
C     2.25374  -0.05090   0.52770
O     2.36129   1.33636   0.91664
C     0.77181  -0.31243   0.95740
C     0.45111  -1.12727   2.06808
N     0.16286  -1.83986   2.94645
H    -0.62150  -3.29092   0.68233
H    -0.31822  -3.59407  -1.06123
H     1.04690  -3.18782   0.00896
H    -2.02109  -1.60679   0.25977
H    -0.61187   1.36741   1.36288
H     1.11933   2.87848   0.16946
H     1.45255   1.66480  -2.23279
H     2.65985  -0.69896  -1.66939
H     3.00303  -0.67970   1.02091
26

C    -0.00605  -2.98200  -0.18544
N    -0.13843  -1.57343  -0.50142
N    -1.36362  -1.13527  -0.38533
C    -1.53951   0.22348  -0.60242
C    -2.71949   0.78942  -0.01184
N    -3.63863   1.27520   0.50774
C    -1.20386   0.74203  -1.89909
N    -0.98343   1.18496  -2.95044
C     0.11078   0.91099   0.68201
C     1.25971   1.79195   0.08351
C     1.68387   1.22648  -1.26809
C     2.28592   0.06406  -0.99142
C     2.24984  -0.05402   0.52509
O     2.34869   1.33157   0.91999
C     0.76471  -0.32769   0.94180
C     0.45126  -1.12790   2.06713
N     0.16383  -1.83743   2.94826
H    -0.61929  -3.29021   0.68374
H    -0.31950  -3.59069  -1.06089
H     1.04813  -3.18864   0.00811
H    -2.01968  -1.60424   0.26212
H    -0.60810   1.36622   1.36740
H     1.11721   2.87738   0.16948
H     1.45347   1.66505  -2.23327
H     2.66085  -0.69838  -1.66996
H     3.00185  -0.68016   1.02078
26

C    -0.00156  -2.97769  -0.18248
N    -0.12765  -1.56461  -0.48833
N    -1.36431  -1.13358  -0.38736
C    -1.52123   0.23382  -0.58897
C    -2.71356   0.79408  -0.00857
N    -3.63832   1.27390   0.50570
C    -1.20137   0.74498  -1.89699
N    -0.98553   1.18344  -2.95071
C     0.09710   0.90368   0.66759
C     1.25359   1.78859   0.08067
C     1.68454   1.22684  -1.26929
C     2.28751   0.06458  -0.99275
C     2.24595  -0.05714   0.52247
O     2.33610   1.32678   0.92333
C     0.75762  -0.34295   0.92620
C     0.45141  -1.12854   2.06617
N     0.16480  -1.83499   2.95006
H    -0.61708  -3.28951   0.68515
H    -0.32078  -3.58731  -1.06055
H     1.04935  -3.18947   0.00725
H    -2.01828  -1.60168   0.26447
H    -0.60434   1.36503   1.37192
H     1.11508   2.87629   0.16950
H     1.45439   1.66530  -2.23375
H     2.66185  -0.69780  -1.67053
H     3.00067  -0.68063   1.02065
26

C     0.00292  -2.97338  -0.17951
N    -0.11687  -1.55579  -0.47525
N    -1.36501  -1.13189  -0.38939
C    -1.50296   0.24416  -0.57552
C    -2.70763   0.79874  -0.00530
N    -3.63801   1.27261   0.50367
C    -1.19887   0.74793  -1.89489
N    -0.98764   1.18193  -2.95098
C     0.08341   0.89638   0.65316
C     1.24747   1.78523   0.07784
C     1.68521   1.22720  -1.27049
C     2.28910   0.06510  -0.99408
C     2.24205  -0.06026   0.51986
O     2.32351   1.32198   0.92667
C     0.75053  -0.35821   0.91060
C     0.45157  -1.12917   2.06521
N     0.16577  -1.83255   2.95187
H    -0.61487  -3.28880   0.68655
H    -0.32206  -3.58392  -1.06021
H     1.05057  -3.19029   0.00640
H    -2.01688  -1.59912   0.26682
H    -0.60057   1.36383   1.37644
H     1.11296   2.87520   0.16952
H     1.45531   1.66555  -2.23422
H     2.66284  -0.69723  -1.67110
H     2.99949  -0.68110   1.02052
26

C     0.00741  -2.96908  -0.17655
N    -0.10608  -1.54697  -0.46217
N    -1.36570  -1.13020  -0.39143
C    -1.48468   0.25450  -0.56207
C    -2.70170   0.80340  -0.00202
N    -3.63770   1.27132   0.50163
C    -1.19638   0.75087  -1.89279
N    -0.98974   1.18041  -2.95125
C     0.06973   0.88908   0.63873
C     1.24135   1.78187   0.07501
C     1.68587   1.22755  -1.27169
C     2.29069   0.06561  -0.99540
C     2.23816  -0.06338   0.51724
O     2.31092   1.31719   0.93001
C     0.74343  -0.37347   0.89500
C     0.45172  -1.12981   2.06426
N     0.16674  -1.83011   2.95368
H    -0.61266  -3.28809   0.68796
H    -0.32334  -3.58054  -1.05988
H     1.05180  -3.19112   0.00554
H    -2.01548  -1.59656   0.26917
H    -0.59680   1.36264   1.38096
H     1.11083   2.87411   0.16954
H     1.45623   1.66580  -2.23470
H     2.66384  -0.69665  -1.67167
H     2.99831  -0.68157   1.02039
26

C     0.01190  -2.96477  -0.17359
N    -0.09530  -1.53815  -0.44908
N    -1.36639  -1.12851  -0.39346
C    -1.46641   0.26484  -0.54861
C    -2.69577   0.80806   0.00125
N    -3.63738   1.27003   0.49960
C    -1.19388   0.75382  -1.89068
N    -0.99184   1.17889  -2.95151
C     0.05605   0.88178   0.62430
C     1.23523   1.77851   0.07217
C     1.68654   1.22791  -1.27289
C     2.29228   0.06613  -0.99673
C     2.23426  -0.06650   0.51463
O     2.29833   1.31239   0.93335
C     0.73634  -0.38874   0.87940
C     0.45187  -1.13045   2.06330
N     0.16770  -1.82767   2.95549
H    -0.61045  -3.28739   0.68936
H    -0.32462  -3.57716  -1.05954
H     1.05302  -3.19194   0.00469
H    -2.01407  -1.59400   0.27151
H    -0.59303   1.36145   1.38548
H     1.10870   2.87301   0.16956
H     1.45715   1.66605  -2.23517
H     2.66484  -0.69607  -1.67224
H     2.99714  -0.68204   1.02026
26

C     0.01638  -2.96046  -0.17063
N    -0.08452  -1.52933  -0.43600
N    -1.36708  -1.12682  -0.39549
C    -1.44813   0.27519  -0.53516
C    -2.68984   0.81272   0.00452
N    -3.63707   1.26873   0.49757
C    -1.19138   0.75677  -1.88858
N    -0.99394   1.17738  -2.95178
C     0.04237   0.87448   0.60987
C     1.22911   1.77515   0.06934
C     1.68720   1.22827  -1.27409
C     2.29387   0.06665  -0.99805
C     2.23037  -0.06962   0.51202
O     2.28574   1.30760   0.93669
C     0.72924  -0.40400   0.86379
C     0.45203  -1.13108   2.06234
N     0.16867  -1.82523   2.95730
H    -0.60824  -3.28668   0.69077
H    -0.32590  -3.57378  -1.05920
H     1.05425  -3.19277   0.00383
H    -2.01267  -1.59144   0.27386
H    -0.58926   1.36026   1.39000
H     1.10658   2.87192   0.16958
H     1.45808   1.66630  -2.23565
H     2.66584  -0.69549  -1.67281
H     2.99596  -0.68251   1.02013
26

C     0.02087  -2.95615  -0.16767
N    -0.07374  -1.52051  -0.42291
N    -1.36778  -1.12512  -0.39752
C    -1.42986   0.28553  -0.52171
C    -2.68392   0.81738   0.00780
N    -3.63676   1.26744   0.49553
C    -1.18889   0.75972  -1.88648
N    -0.99605   1.17586  -2.95205
C     0.02868   0.86717   0.59544
C     1.22299   1.77179   0.06651
C     1.68787   1.22863  -1.27529
C     2.29546   0.06716  -0.99938
C     2.22647  -0.07274   0.50940
O     2.27314   1.30280   0.94004
C     0.72215  -0.41926   0.84819
C     0.45218  -1.13172   2.06138
N     0.16964  -1.82280   2.95911
H    -0.60603  -3.28597   0.69217
H    -0.32718  -3.57040  -1.05886
H     1.05547  -3.19359   0.00298
H    -2.01127  -1.58889   0.27621
H    -0.58549   1.35907   1.39453
H     1.10445   2.87083   0.16961
H     1.45900   1.66655  -2.23612
H     2.66683  -0.69491  -1.67338
H     2.99478  -0.68298   1.02000
26

C     0.02535  -2.95184  -0.16471
N    -0.06295  -1.51169  -0.40983
N    -1.36847  -1.12343  -0.39955
C    -1.41158   0.29587  -0.50826
C    -2.67799   0.82204   0.01107
N    -3.63645   1.26615   0.49350
C    -1.18639   0.76266  -1.88438
N    -0.99815   1.17435  -2.95232
C     0.01500   0.85987   0.58101
C     1.21687   1.76843   0.06368
C     1.68854   1.22898  -1.27649
C     2.29704   0.06768  -1.00071
C     2.22258  -0.07586   0.50679
O     2.26055   1.29801   0.94338
C     0.71506  -0.43452   0.83259
C     0.45233  -1.13235   2.06043
N     0.17061  -1.82036   2.96091
H    -0.60382  -3.28527   0.69358
H    -0.32845  -3.56701  -1.05853
H     1.05669  -3.19442   0.00212
H    -2.00987  -1.58633   0.27856
H    -0.58172   1.35788   1.39905
H     1.10233   2.86973   0.16963
H     1.45992   1.66680  -2.23660
H     2.66783  -0.69433  -1.67394
H     2.99360  -0.68345   1.01987
26

C     0.02984  -2.94754  -0.16175
N    -0.05217  -1.50287  -0.39675
N    -1.36916  -1.12174  -0.40158
C    -1.39331   0.30621  -0.49480
C    -2.67206   0.82670   0.01434
N    -3.63614   1.26486   0.49146
C    -1.18390   0.76561  -1.88227
N    -1.00025   1.17283  -2.95259
C     0.00132   0.85257   0.56658
C     1.21075   1.76507   0.06084
C     1.68920   1.22934  -1.27769
C     2.29863   0.06819  -1.00203
C     2.21868  -0.07898   0.50417
O     2.24796   1.29322   0.94672
C     0.70796  -0.44979   0.81699
C     0.45249  -1.13299   2.05947
N     0.17158  -1.81792   2.96272
H    -0.60161  -3.28456   0.69498
H    -0.32973  -3.56363  -1.05819
H     1.05792  -3.19524   0.00127
H    -2.00846  -1.58377   0.28091
H    -0.57795   1.35669   1.40357
H     1.10020   2.86864   0.16965
H     1.46084   1.66705  -2.23707
H     2.66883  -0.69376  -1.67451
H     2.99242  -0.68391   1.01974
26

C     0.02535  -2.95184  -0.16471
N    -0.06295  -1.51169  -0.40983
N    -1.36847  -1.12343  -0.39955
C    -1.41158   0.29587  -0.50826
C    -2.67799   0.82204   0.01107
N    -3.63645   1.26615   0.49350
C    -1.18639   0.76266  -1.88438
N    -0.99815   1.17435  -2.95232
C     0.01500   0.85987   0.58101
C     1.21687   1.76843   0.06368
C     1.68854   1.22898  -1.27649
C     2.29704   0.06768  -1.00071
C     2.22258  -0.07586   0.50679
O     2.26055   1.29801   0.94338
C     0.71506  -0.43452   0.83259
C     0.45233  -1.13235   2.06043
N     0.17061  -1.82036   2.96091
H    -0.60382  -3.28527   0.69358
H    -0.32845  -3.56701  -1.05853
H     1.05669  -3.19442   0.00212
H    -2.00987  -1.58633   0.27856
H    -0.58172   1.35788   1.39905
H     1.10233   2.86973   0.16963
H     1.45992   1.66680  -2.23660
H     2.66783  -0.69433  -1.67394
H     2.99360  -0.68345   1.01987
26

C     0.02087  -2.95615  -0.16767
N    -0.07374  -1.52051  -0.42291
N    -1.36778  -1.12512  -0.39752
C    -1.42986   0.28553  -0.52171
C    -2.68392   0.81738   0.00780
N    -3.63676   1.26744   0.49553
C    -1.18889   0.75972  -1.88648
N    -0.99605   1.17586  -2.95205
C     0.02868   0.86717   0.59544
C     1.22299   1.77179   0.06651
C     1.68787   1.22863  -1.27529
C     2.29546   0.06716  -0.99938
C     2.22647  -0.07274   0.50940
O     2.27314   1.30280   0.94004
C     0.72215  -0.41926   0.84819
C     0.45218  -1.13172   2.06138
N     0.16964  -1.82280   2.95911
H    -0.60603  -3.28597   0.69217
H    -0.32718  -3.57040  -1.05886
H     1.05547  -3.19359   0.00298
H    -2.01127  -1.58889   0.27621
H    -0.58549   1.35907   1.39453
H     1.10445   2.87083   0.16961
H     1.45900   1.66655  -2.23612
H     2.66683  -0.69491  -1.67338
H     2.99478  -0.68298   1.02000
26

C     0.01638  -2.96046  -0.17063
N    -0.08452  -1.52933  -0.43600
N    -1.36708  -1.12682  -0.39549
C    -1.44813   0.27519  -0.53516
C    -2.68984   0.81272   0.00452
N    -3.63707   1.26873   0.49757
C    -1.19138   0.75677  -1.88858
N    -0.99394   1.17738  -2.95178
C     0.04237   0.87448   0.60987
C     1.22911   1.77515   0.06934
C     1.68720   1.22827  -1.27409
C     2.29387   0.06665  -0.99805
C     2.23037  -0.06962   0.51202
O     2.28574   1.30760   0.93669
C     0.72924  -0.40400   0.86379
C     0.45203  -1.13108   2.06234
N     0.16867  -1.82523   2.95730
H    -0.60824  -3.28668   0.69077
H    -0.32590  -3.57378  -1.05920
H     1.05425  -3.19277   0.00383
H    -2.01267  -1.59144   0.27386
H    -0.58926   1.36026   1.39000
H     1.10658   2.87192   0.16958
H     1.45808   1.66630  -2.23565
H     2.66584  -0.69549  -1.67281
H     2.99596  -0.68251   1.02013
26

C     0.01190  -2.96477  -0.17359
N    -0.09530  -1.53815  -0.44908
N    -1.36639  -1.12851  -0.39346
C    -1.46641   0.26484  -0.54861
C    -2.69577   0.80806   0.00125
N    -3.63738   1.27003   0.49960
C    -1.19388   0.75382  -1.89068
N    -0.99184   1.17889  -2.95151
C     0.05605   0.88178   0.62430
C     1.23523   1.77851   0.07217
C     1.68654   1.22791  -1.27289
C     2.29228   0.06613  -0.99673
C     2.23426  -0.06650   0.51463
O     2.29833   1.31239   0.93335
C     0.73634  -0.38874   0.87940
C     0.45187  -1.13045   2.06330
N     0.16770  -1.82767   2.95549
H    -0.61045  -3.28739   0.68936
H    -0.32462  -3.57716  -1.05954
H     1.05302  -3.19194   0.00469
H    -2.01407  -1.59400   0.27151
H    -0.59303   1.36145   1.38548
H     1.10870   2.87301   0.16956
H     1.45715   1.66605  -2.23517
H     2.66484  -0.69607  -1.67224
H     2.99714  -0.68204   1.02026
26

C     0.00741  -2.96908  -0.17655
N    -0.10608  -1.54697  -0.46217
N    -1.36570  -1.13020  -0.39143
C    -1.48468   0.25450  -0.56207
C    -2.70170   0.80340  -0.00202
N    -3.63770   1.27132   0.50163
C    -1.19638   0.75087  -1.89279
N    -0.98974   1.18041  -2.95125
C     0.06973   0.88908   0.63873
C     1.24135   1.78187   0.07501
C     1.68587   1.22755  -1.27169
C     2.29069   0.06561  -0.99540
C     2.23816  -0.06338   0.51724
O     2.31092   1.31719   0.93001
C     0.74343  -0.37347   0.89500
C     0.45172  -1.12981   2.06426
N     0.16674  -1.83011   2.95368
H    -0.61266  -3.28809   0.68796
H    -0.32334  -3.58054  -1.05988
H     1.05180  -3.19112   0.00554
H    -2.01548  -1.59656   0.26917
H    -0.59680   1.36264   1.38096
H     1.11083   2.87411   0.16954
H     1.45623   1.66580  -2.23470
H     2.66384  -0.69665  -1.67167
H     2.99831  -0.68157   1.02039
26

C     0.00292  -2.97338  -0.17951
N    -0.11687  -1.55579  -0.47525
N    -1.36501  -1.13189  -0.38939
C    -1.50296   0.24416  -0.57552
C    -2.70763   0.79874  -0.00530
N    -3.63801   1.27261   0.50367
C    -1.19887   0.74793  -1.89489
N    -0.98764   1.18193  -2.95098
C     0.08341   0.89638   0.65316
C     1.24747   1.78523   0.07784
C     1.68521   1.22720  -1.27049
C     2.28910   0.06510  -0.99408
C     2.24205  -0.06026   0.51986
O     2.32351   1.32198   0.92667
C     0.75053  -0.35821   0.91060
C     0.45157  -1.12917   2.06521
N     0.16577  -1.83255   2.95187
H    -0.61487  -3.28880   0.68655
H    -0.32206  -3.58392  -1.06021
H     1.05057  -3.19029   0.00640
H    -2.01688  -1.59912   0.26682
H    -0.60057   1.36383   1.37644
H     1.11296   2.87520   0.16952
H     1.45531   1.66555  -2.23422
H     2.66284  -0.69723  -1.67110
H     2.99949  -0.68110   1.02052
26

C    -0.00156  -2.97769  -0.18248
N    -0.12765  -1.56461  -0.48833
N    -1.36431  -1.13358  -0.38736
C    -1.52123   0.23382  -0.58897
C    -2.71356   0.79408  -0.00857
N    -3.63832   1.27390   0.50570
C    -1.20137   0.74498  -1.89699
N    -0.98553   1.18344  -2.95071
C     0.09710   0.90368   0.66759
C     1.25359   1.78859   0.08067
C     1.68454   1.22684  -1.26929
C     2.28751   0.06458  -0.99275
C     2.24595  -0.05714   0.52247
O     2.33610   1.32678   0.92333
C     0.75762  -0.34295   0.92620
C     0.45141  -1.12854   2.06617
N     0.16480  -1.83499   2.95006
H    -0.61708  -3.28951   0.68515
H    -0.32078  -3.58731  -1.06055
H     1.04935  -3.18947   0.00725
H    -2.01828  -1.60168   0.26447
H    -0.60434   1.36503   1.37192
H     1.11508   2.87629   0.16950
H     1.45439   1.66530  -2.23375
H     2.66185  -0.69780  -1.67053
H     3.00067  -0.68063   1.02065
26

C    -0.00605  -2.98200  -0.18544
N    -0.13843  -1.57343  -0.50142
N    -1.36362  -1.13527  -0.38533
C    -1.53951   0.22348  -0.60242
C    -2.71949   0.78942  -0.01184
N    -3.63863   1.27520   0.50774
C    -1.20386   0.74203  -1.89909
N    -0.98343   1.18496  -2.95044
C     0.11078   0.91099   0.68201
C     1.25971   1.79195   0.08351
C     1.68387   1.22648  -1.26809
C     2.28592   0.06406  -0.99142
C     2.24984  -0.05402   0.52509
O     2.34869   1.33157   0.91999
C     0.76471  -0.32769   0.94180
C     0.45126  -1.12790   2.06713
N     0.16383  -1.83743   2.94826
H    -0.61929  -3.29021   0.68374
H    -0.31950  -3.59069  -1.06089
H     1.04813  -3.18864   0.00811
H    -2.01968  -1.60424   0.26212
H    -0.60810   1.36622   1.36740
H     1.11721   2.87738   0.16948
H     1.45347   1.66505  -2.23327
H     2.66085  -0.69838  -1.66996
H     3.00185  -0.68016   1.02078
26

C    -0.01053  -2.98631  -0.18840
N    -0.14922  -1.58224  -0.51450
N    -1.36293  -1.13697  -0.38330
C    -1.55778   0.21314  -0.61588
C    -2.72542   0.78476  -0.01512
N    -3.63894   1.27649   0.50977
C    -1.20636   0.73908  -1.90120
N    -0.98133   1.18647  -2.95017
C     0.12446   0.91829   0.69644
C     1.26582   1.79531   0.08634
C     1.68321   1.22613  -1.26689
C     2.28433   0.06355  -0.99010
C     2.25374  -0.05090   0.52770
O     2.36129   1.33636   0.91664
C     0.77181  -0.31243   0.95740
C     0.45111  -1.12727   2.06808
N     0.16286  -1.83986   2.94645
H    -0.62150  -3.29092   0.68233
H    -0.31822  -3.59407  -1.06123
H     1.04690  -3.18782   0.00896
H    -2.02109  -1.60679   0.25977
H    -0.61187   1.36741   1.36288
H     1.11933   2.87848   0.16946
H     1.45255   1.66480  -2.23279
H     2.65985  -0.69896  -1.66939
H     3.00303  -0.67970   1.02091
26

C    -0.01502  -2.99062  -0.19136
N    -0.16000  -1.59106  -0.52758
N    -1.36224  -1.13866  -0.38127
C    -1.57606   0.20279  -0.62933
C    -2.73134   0.78010  -0.01839
N    -3.63925   1.27778   0.51181
C    -1.20886   0.73614  -1.90330
N    -0.97923   1.18799  -2.94990
C     0.13815   0.92559   0.71087
C     1.27194   1.79867   0.08917
C     1.68254   1.22577  -1.26569
C     2.28274   0.06303  -0.98877
C     2.25763  -0.04778   0.53031
O     2.37388   1.34116   0.91330
C     0.77890  -0.29716   0.97300
C     0.45095  -1.12663   2.06904
N     0.16189  -1.84230   2.94464
H    -0.62371  -3.29162   0.68093
H    -0.31694  -3.59745  -1.06156
H     1.04568  -3.18699   0.00982
H    -2.02249  -1.60935   0.25742
H    -0.61564   1.36860   1.35836
H     1.12146   2.87957   0.16944
H     1.45163   1.66455  -2.23232
H     2.65885  -0.69954  -1.66883
H     3.00421  -0.67923   1.02104
26

C    -0.01950  -2.99493  -0.19432
N    -0.17078  -1.59988  -0.54067
N    -1.36154  -1.14035  -0.37924
C    -1.59433   0.19245  -0.64278
C    -2.73727   0.77543  -0.02166
N    -3.63957   1.27907   0.51384
C    -1.21135   0.73319  -1.90540
N    -0.97712   1.18950  -2.94963
C     0.15183   0.93289   0.72530
C     1.27806   1.80203   0.09201
C     1.68188   1.22541  -1.26450
C     2.28115   0.06251  -0.98744
C     2.26153  -0.04466   0.53293
O     2.38647   1.34595   0.90996
C     0.78599  -0.28190   0.98860
C     0.45080  -1.12600   2.07000
N     0.16092  -1.84474   2.94283
H    -0.62592  -3.29233   0.67952
H    -0.31566  -3.60083  -1.06190
H     1.04445  -3.18617   0.01067
H    -2.02389  -1.61191   0.25507
H    -0.61941   1.36979   1.35384
H     1.12359   2.88066   0.16942
H     1.45071   1.66429  -2.23184
H     2.65786  -0.70012  -1.66826
H     3.00539  -0.67876   1.02117
26

C    -0.02399  -2.99923  -0.19728
N    -0.18157  -1.60870  -0.55375
N    -1.36085  -1.14204  -0.37721
C    -1.61261   0.18211  -0.65623
C    -2.74320   0.77077  -0.02494
N    -3.63988   1.28036   0.51588
C    -1.21385   0.73024  -1.90750
N    -0.97502   1.19102  -2.94937
C     0.16551   0.94019   0.73973
C     1.28418   1.80539   0.09484
C     1.68121   1.22505  -1.26330
C     2.27956   0.06200  -0.98612
C     2.26542  -0.04154   0.53554
O     2.39906   1.35075   0.90662
C     0.79309  -0.26664   1.00421
C     0.45065  -1.12536   2.07096
N     0.15995  -1.84718   2.94102
H    -0.62813  -3.29304   0.67812
H    -0.31438  -3.60422  -1.06224
H     1.04323  -3.18534   0.01152
H    -2.02529  -1.61447   0.25272
H    -0.62318   1.37098   1.34932
H     1.12571   2.88176   0.16939
H     1.44978   1.66404  -2.23137
H     2.65686  -0.70070  -1.66769
H     3.00657  -0.67829   1.02130
26

C    -0.02847  -3.00354  -0.20024
N    -0.19235  -1.61752  -0.56683
N    -1.36016  -1.14373  -0.37517
C    -1.63088   0.17177  -0.66969
C    -2.74913   0.76611  -0.02821
N    -3.64019   1.28166   0.51791
C    -1.21634   0.72729  -1.90960
N    -0.97292   1.19253  -2.94910
C     0.17919   0.94749   0.75416
C     1.29030   1.80875   0.09767
C     1.68055   1.22470  -1.26210
C     2.27797   0.06148  -0.98479
C     2.26932  -0.03842   0.53816
O     2.41165   1.35554   0.90328
C     0.80018  -0.25138   1.01981
C     0.45049  -1.12473   2.07191
N     0.15898  -1.84962   2.93921
H    -0.63035  -3.29374   0.67671
H    -0.31310  -3.60760  -1.06258
H     1.04201  -3.18452   0.01238
H    -2.02670  -1.61703   0.25038
H    -0.62695   1.37217   1.34479
H     1.12784   2.88285   0.16937
H     1.44886   1.66379  -2.23089
H     2.65586  -0.70127  -1.66712
H     3.00774  -0.67782   1.02143
26

C    -0.03296  -3.00785  -0.20320
N    -0.20313  -1.62634  -0.57992
N    -1.35947  -1.14542  -0.37314
C    -1.64916   0.16143  -0.68314
C    -2.75506   0.76145  -0.03148
N    -3.64050   1.28295   0.51994
C    -1.21884   0.72435  -1.91171
N    -0.97082   1.19405  -2.94883
C     0.19288   0.95480   0.76859
C     1.29642   1.81211   0.10050
C     1.67988   1.22434  -1.26090
C     2.27638   0.06097  -0.98347
C     2.27321  -0.03530   0.54077
O     2.42425   1.36034   0.89993
C     0.80727  -0.23612   1.03541
C     0.45034  -1.12409   2.07287
N     0.15802  -1.85206   2.93741
H    -0.63256  -3.29445   0.67531
H    -0.31182  -3.61098  -1.06291
H     1.04078  -3.18369   0.01323
H    -2.02810  -1.61958   0.24803
H    -0.63072   1.37336   1.34027
H     1.12996   2.88394   0.16935
H     1.44794   1.66354  -2.23042
H     2.65486  -0.70185  -1.66655
H     3.00892  -0.67735   1.02156
26

C    -0.03744  -3.01216  -0.20616
N    -0.21391  -1.63516  -0.59300
N    -1.35877  -1.14711  -0.37111
C    -1.66743   0.15109  -0.69659
C    -2.76099   0.75679  -0.03476
N    -3.64081   1.28424   0.52198
C    -1.22134   0.72140  -1.91381
N    -0.96871   1.19556  -2.94856
C     0.20656   0.96210   0.78302
C     1.30254   1.81547   0.10334
C     1.67921   1.22398  -1.25970
C     2.27479   0.06045  -0.98214
C     2.27711  -0.03218   0.54338
O     2.43684   1.36513   0.89659
C     0.81437  -0.22085   1.05101
C     0.45019  -1.12346   2.07383
N     0.15705  -1.85449   2.93560
H    -0.63477  -3.29515   0.67390
H    -0.31055  -3.61436  -1.06325
H     1.03956  -3.18287   0.01409
H    -2.02950  -1.62214   0.24568
H    -0.63449   1.37455   1.33575
H     1.13209   2.88503   0.16933
H     1.44702   1.66329  -2.22994
H     2.65387  -0.70243  -1.66598
H     3.01010  -0.67688   1.02169
26

C    -0.04193  -3.01647  -0.20912
N    -0.22470  -1.64398  -0.60609
N    -1.35808  -1.14881  -0.36908
C    -1.68571   0.14074  -0.71004
C    -2.76692   0.75213  -0.03803
N    -3.64112   1.28553   0.52401
C    -1.22383   0.71845  -1.91591
N    -0.96661   1.19708  -2.94829
C     0.22024   0.96940   0.79745
C     1.30866   1.81883   0.10617
C     1.67855   1.22363  -1.25850
C     2.27321   0.05993  -0.98081
C     2.28100  -0.02906   0.54600
O     2.44943   1.36992   0.89325
C     0.82146  -0.20559   1.06661
C     0.45003  -1.12282   2.07479
N     0.15608  -1.85693   2.93379
H    -0.63698  -3.29586   0.67250
H    -0.30927  -3.61774  -1.06359
H     1.03833  -3.18204   0.01494
H    -2.03090  -1.62470   0.24333
H    -0.63826   1.37574   1.33123
H     1.13422   2.88613   0.16931
H     1.44610   1.66304  -2.22947
H     2.65287  -0.70301  -1.66541
H     3.01128  -0.67641   1.02182
26

C    -0.04641  -3.02078  -0.21208
N    -0.23548  -1.65280  -0.61917
N    -1.35739  -1.15050  -0.36705
C    -1.70398   0.13040  -0.72350
C    -2.77285   0.74747  -0.04130
N    -3.64144   1.28683   0.52605
C    -1.22633   0.71550  -1.91801
N    -0.96451   1.19859  -2.94802
C     0.23393   0.97670   0.81188
C     1.31478   1.82219   0.10900
C     1.67788   1.22327  -1.25730
C     2.27162   0.05942  -0.97949
C     2.28490  -0.02594   0.54861
O     2.46202   1.37472   0.88991
C     0.82855  -0.19033   1.08221
C     0.44988  -1.12218   2.07574
N     0.15511  -1.85937   2.93198
H    -0.63919  -3.29657   0.67109
H    -0.30799  -3.62113  -1.06393
H     1.03711  -3.18122   0.01580
H    -2.03230  -1.62726   0.24098
H    -0.64203   1.37693   1.32671
H     1.13634   2.88722   0.16929
H     1.44518   1.66279  -2.22899
H     2.65187  -0.70359  -1.66484
H     3.01246  -0.67595   1.02195
26

C    -0.05090  -3.02508  -0.21504
N    -0.24626  -1.66162  -0.63225
N    -1.35670  -1.15219  -0.36502
C    -1.72226   0.12006  -0.73695
C    -2.77877   0.74281  -0.04458
N    -3.64175   1.28812   0.52808
C    -1.22882   0.71255  -1.92012
N    -0.96240   1.20011  -2.94775
C     0.24761   0.98400   0.82631
C     1.32090   1.82555   0.11184
C     1.67722   1.22291  -1.25610
C     2.27003   0.05890  -0.97816
C     2.28879  -0.02282   0.55123
O     2.47461   1.37951   0.88657
C     0.83565  -0.17507   1.09781
C     0.44973  -1.12155   2.07670
N     0.15414  -1.86181   2.93017
H    -0.64140  -3.29727   0.66969
H    -0.30671  -3.62451  -1.06426
H     1.03589  -3.18039   0.01665
H    -2.03371  -1.62982   0.23863
H    -0.64580   1.37813   1.32219
H     1.13847   2.88831   0.16927
H     1.44426   1.66254  -2.22851
H     2.65087  -0.70416  -1.66428
H     3.01364  -0.67548   1.02208
26

C    -0.05539  -3.02939  -0.21800
N    -0.25705  -1.67044  -0.64534
N    -1.35600  -1.15388  -0.36299
C    -1.74054   0.10972  -0.75040
C    -2.78470   0.73815  -0.04785
N    -3.64206   1.28941   0.53012
C    -1.23132   0.70961  -1.92222
N    -0.96030   1.20162  -2.94748
C     0.26129   0.99131   0.84073
C     1.32702   1.82891   0.11467
C     1.67655   1.22255  -1.25490
C     2.26844   0.05838  -0.97683
C     2.29269  -0.01970   0.55384
O     2.48720   1.38431   0.88322
C     0.84274  -0.15980   1.11342
C     0.44957  -1.12091   2.07766
N     0.15317  -1.86425   2.92836
H    -0.64361  -3.29798   0.66828
H    -0.30543  -3.62789  -1.06460
H     1.03466  -3.17957   0.01751
H    -2.03511  -1.63238   0.23628
H    -0.64957   1.37932   1.31767
H     1.14059   2.88941   0.16925
H     1.44334   1.66229  -2.22804
H     2.64988  -0.70474  -1.66371
H     3.01482  -0.67501   1.02220
