14

O 0.675740948 -3.012272953 -2.976951591
C -1.350233958 -1.737208880 -3.535997642
C -2.178173051 0.012138901 -1.421354670
C -1.349641038 -0.530440832 1.287099210
O 1.317566395 -0.761642493 1.557462610
C 2.635470049 1.555361045 1.478731234
H 1.364861119 -2.624413866 -1.292445113
H 2.498276499 2.471663241 -0.372539871
H -4.238939383 0.126469826 -1.496152090
H -1.544941474 1.884181309 -2.061302429
H -2.112636612 -2.343717878 1.910441529
H -2.058836771 0.923636884 2.583007680
H 1.919447605 2.852270447 2.924804107
H 4.612112067 1.139566685 1.867249760

