16

C 2.580872025 -1.544506326 1.374150672
C 1.932168410 2.122288709 -1.188602206
C 0.117931571 0.383914171 -2.488526061
N -0.849880060 -0.309469449 0.020885026
C -3.458270731 -0.906635944 0.556725732
C 0.422737139 2.105049928 1.024210754
O -0.024010029 3.156530224 2.982796495
H 1.504115509 -2.631436013 2.733840838
H 4.060965336 -0.441678960 2.255017857
H 3.180886696 -2.604910513 -0.268179425
H 3.398074828 3.372464145 -1.846780322
H -1.375647675 1.375140548 -3.523118856
H 0.811542601 -1.194647572 -3.627386933
H -3.658418182 -1.217366539 2.584526340
H -4.734422096 0.636322527 0.027316634
H -4.021216326 -2.621545130 -0.441165994

