15

C 3.452420649 0.179024471 0.724959772
C 0.947595625 0.648731168 -0.577708835
C -1.220087027 1.645359725 1.122568107
C -2.845078206 -0.614446604 0.370304760
O -4.070721160 -0.177541810 -2.053557348
C -2.284274842 -1.254860558 -3.450543433
C -0.655486145 -1.776931793 -1.141250884
H 3.209990349 -1.004334954 2.400755142
H 4.773881958 -0.774968407 -0.539654796
H 4.310625898 1.958064801 1.324501501
H -2.016148802 3.495050017 0.693704287
H -0.717620302 1.568819788 3.121194764
H -4.103946911 -1.538110435 1.706198871
H 1.240447352 1.781586679 -2.278752004
H 0.222992577 -3.613482744 -0.882159965

