15

C 2.841135047 1.561683105 -0.614264566
C 0.788349085 -0.049241217 0.553639374
O 1.482698128 -1.003286308 2.943970371
C -1.874935465 1.104591180 0.741797269
C -2.975734759 -0.993624950 -0.857352756
O -1.481904292 -1.171914185 -3.038634274
C 0.060044044 -2.321068339 -1.197866796
H 2.252717984 2.279854093 -2.454196332
H 3.265145370 3.152230776 0.626678933
H 4.563497275 0.451268243 -0.860370308
H 2.441147546 -2.523458158 2.659661491
H -2.523029190 1.085166345 2.693262371
H -2.147315543 2.971482176 -0.084690004
H -4.944343192 -1.484636892 -1.174655781
H -2.188649409 -2.930640867 0.209418070

