15

C 3.343785472 0.557439916 0.379571958
C 0.647282995 -0.332585713 0.150955008
C -1.355855572 0.861747295 1.817590649
C -3.627809003 0.650281008 0.203444910
O -3.266437791 0.254217013 -2.116017011
C -0.652562928 -0.770144824 -2.345113044
C -0.262198101 -2.895727402 -0.630223398
H 4.137236062 -0.013436539 2.199044925
H 4.504535099 -0.301498301 -1.091105471
H 3.522409510 2.611331840 0.223256666
H -1.145871322 2.891390650 2.270268306
H -1.561216419 -0.151225503 3.598626794
H -5.518625235 1.257060577 0.735215051
H 0.030603982 -0.380426379 -4.231286219
H 1.173992563 -4.247207086 -1.214159466

