11

O -4.219223020 -2.770014335 0.993217280
C -3.411519096 -0.743488574 0.391373430
C -0.712736097 -0.164114985 -0.070317295
C 0.447972050 2.218743222 -0.286896236
N 2.927076295 2.003352786 -0.035307907
C 3.344521634 -0.478898212 0.305902364
N 1.312122302 -1.955328780 0.412845292
H -4.671475470 0.904380159 0.106941775
H -0.466272687 4.019452683 -0.601525469
H 5.223288575 -1.262842572 0.472858307
H 0.099675437 -1.670358345 -1.701796150

