12

N 4.111183976 -0.524263922 -0.714172006
C 1.600205853 -0.549143073 -0.222968748
N 0.138685470 -2.499561834 -0.735242962
C -1.767722231 -1.569396835 0.678578145
C -3.447271863 0.377800850 -0.347129518
C -1.834609976 2.280078384 0.057673856
N 0.573332910 1.550486743 0.925946771
H 5.079723757 0.941739572 0.000477628
H 5.007207085 -2.180597551 -0.929785278
H -1.918661233 -2.121146086 2.670279050
H -5.264106508 0.235769639 -1.253646409
H -2.183919349 4.285475552 -0.189293129

