12

O 2.214572275 -1.597597294 1.868757516
C 2.190126154 -0.762707845 -0.706237348
C 0.045101621 -2.126510811 0.389359605
C -2.104198210 -0.266274354 0.743089729
C -0.964712027 2.202379158 -0.122882616
C 1.377252771 1.919656042 -0.983443768
H -0.323389172 -4.112762483 0.042346362
H 3.599103666 -1.624012981 -1.917160413
H -3.741923063 -0.792834142 -0.403298641
H -2.727976319 -0.190306948 2.711301773
H -1.960420117 3.984875513 0.015142149
H 2.579949140 3.406271723 -1.704592547

