12

O 4.022621904 -1.530238837 1.338572005
C 2.222893779 -0.853363015 -0.208012983
C -0.179481898 -2.074982118 0.302522173
C -2.279641536 -0.274442166 0.459456672
C -1.026724675 2.199879617 -0.239435254
C 1.445805704 1.925927060 -0.511537108
H -0.277827346 -4.075691442 0.732341306
H 2.425745296 -1.484562173 -2.297156047
H -3.877393390 -0.887907208 -0.712490074
H -3.037159116 -0.229362598 2.396832089
H -2.074853560 3.947072071 -0.405516140
H 2.819501576 3.377844497 -0.923196691

