17

C -3.107725722 -0.232479002 2.456980976
C -2.609159827 1.809980041 0.551266540
C -1.641857249 -0.814505635 0.113626133
C 1.143989570 -1.432044057 0.165098606
C 2.429750967 -0.950960906 -2.343939203
C 3.419872573 2.061017987 2.193413994
O 2.318988752 -0.101003783 2.308569917
H -2.075324140 -0.130944717 4.218447741
H -5.003804123 -0.980538181 2.611031638
H -4.153998499 2.466189479 -0.615015733
H -1.277257100 3.272482968 1.081147087
H -2.628883182 -1.897027667 -1.320426495
H 1.394879758 -3.407959891 0.702342755
H 4.471010034 -1.210044985 -2.205527536
H 1.705806319 -2.322417188 -3.702493002
H 3.438307324 2.687917924 0.171717844
H 2.034438498 0.928577610 -3.086257923

