17

C -3.323891361 -0.252584120 2.517046506
C -3.338482107 1.243809534 0.106552699
C -1.752851466 -1.091029939 0.320814779
C 1.076931013 -0.908002726 0.432678969
C 2.406704415 -0.292296128 -2.080183041
C 4.258366164 1.591806039 0.729911761
O 1.915682288 1.176693605 1.883302681
H -2.337999435 0.568237981 4.108607731
H -4.977302396 -1.355124588 2.996319148
H -5.007125317 1.169673367 -1.072588555
H -2.368831337 3.044119979 0.130659595
H -2.399903688 -2.749625796 -0.698347798
H 1.871061772 -2.660107523 1.222737595
H 3.424814698 -1.809687379 -3.014934444
H 1.204198096 0.752229521 -3.394229746
H 5.439058600 -0.118409067 1.015175085
H 3.827691987 1.611697825 -1.670392719

