9

C 0.363064747 2.555807000 2.712699754
N -1.353840822 1.818612235 1.142951014
C -2.825283533 2.004878891 -0.864704149
H -3.810950204 3.669736073 -1.504434533
C -3.390428127 -0.014885146 0.987765061
H -2.869191622 -1.954826301 0.553996759
H -4.791454125 0.197692243 2.488775202
H 0.837743616 1.341748785 4.279482248
H 1.342380842 4.312515643 2.362457517

