13

C -3.756674549 0.635604185 -0.284520397
C -1.015455652 0.019374530 -0.273285729
N -0.042177251 -1.435288301 -2.226353943
O 2.577814108 -1.573510674 -1.882418157
C 3.158609716 -0.486187471 0.413944394
N 5.419791708 -0.576451354 1.159884756
C 0.803013416 0.529477261 1.406378345
H -4.879602479 -1.092988999 -0.240010033
H -4.238789414 1.786768932 1.348980427
H -4.273591348 1.679272334 -1.989349406
H 5.587047191 0.260516094 2.873097062
H -0.357728614 -0.785196304 -4.000073881
H 0.607321127 1.493126676 3.188290945

