13

C -3.565879428 0.798429149 -0.434274994
C -1.074579117 -0.349196349 0.169102520
N -0.054298861 -2.070478731 -1.547824591
O 1.894878520 -3.278818748 0.018322785
C 2.727868661 -1.073208914 0.992605821
N 4.390444490 -0.139781133 -0.596857959
C 0.579891015 0.225226025 2.062262598
H -3.657682550 1.261024901 -2.441739049
H -5.066220284 -0.563794460 -0.048528129
H -3.906958798 2.501896213 0.668881771
H 4.730816423 1.720563360 -0.270014009
H 2.378298147 -0.585875627 -2.184825473
H 0.512358799 1.740123991 3.415803464

