14

O 3.683313094 -2.105440365 1.608777745
C 2.917635847 0.355253847 -0.618303629
C 0.450628381 0.800873358 0.345505827
C -1.761248426 -0.164494518 -1.067404526
C -4.349602841 0.544257753 -0.450698452
O -3.162007482 1.555822970 -2.628359822
H 4.942266213 -1.617964252 2.837215642
H 4.429182024 1.686729817 -0.242176453
H 3.175179440 -0.754316270 -2.321332277
H 1.653364208 -1.135160316 1.942224228
H 0.166697258 2.549489003 1.381719309
H -1.492833995 -1.999424443 -1.964343038
H -4.679756779 1.887961290 1.069166129
H -5.893843377 -0.762710793 -0.808271617

