9

C -2.473109316 0.012847341 0.060173944
C 0.324178869 -0.065049022 0.039599891
N 1.711049175 -1.700919940 1.208512832
O 4.097404887 -1.036187063 0.649436300
N 4.062779756 1.029778586 -0.875131734
N 1.816643593 1.635532714 -1.258534582
H -3.129092213 1.796117728 0.856116950
H -3.199986876 -0.128496822 -1.862121667
H -3.209867857 -1.543623522 1.181948026

