12

C -3.695196580 -0.276174856 -0.633446364
C -1.771610286 1.292393599 0.722486120
O -1.997041309 3.398669733 1.473275991
C 1.380383064 0.103726424 -0.038630594
O 0.225480685 -0.399166131 2.016504751
C 4.107196956 -0.518177624 -0.126378288
H -4.381221568 0.792007803 -2.251554423
H -2.950130179 -2.082773837 -1.259331612
H -5.273614004 -0.581099854 0.660725108
H 4.721662949 -1.627480667 1.504792296
H 4.550966142 -1.472123126 -1.898826006
H 5.120489685 1.284614711 -0.168982050

