11

C -0.014982524 3.368085404 -1.807016157
C 0.443766899 1.920223602 0.526593425
C 1.972902571 -0.254598643 0.070561485
H 2.224692061 -1.116229304 -1.789746838
C 4.290121973 -0.144219551 1.701570667
H 6.037504042 -0.761846678 0.815918715
H 4.445807154 1.309656398 3.139665325
O 2.450901651 -1.963148523 2.104169751
H -0.296107158 5.379884642 -1.469127173
H -1.891523254 2.639720081 -2.355582391
H 1.260202152 3.047014208 -3.413978914

