15

C -0.804291457 -3.420371593 1.260096214
C -1.131155892 -1.114931970 -0.366098778
O -2.003946841 -1.824886579 -2.769257216
C -2.106102033 1.331620250 0.808705328
O 3.225536635 4.582474434 0.053825523
C 0.507759470 1.086707077 -0.111061453
C 2.710123188 2.137516897 -0.562583448
H -2.584026753 -4.457831784 1.366012642
H -0.223972986 -2.893132657 3.164200641
H 0.625966393 -4.666883227 0.452349487
H -1.670317337 -0.467339494 -3.923030295
H -2.447447553 1.375797644 2.830953599
H -3.412998638 2.456485055 -0.302466521
H 4.928789650 4.977392347 -0.412045881
H 4.229565737 1.087954957 -1.461809530

