10

N 3.841779631 -0.292798399 0.038464241
C 1.258936754 -0.330474719 -0.073115526
C 0.095156611 1.834093891 1.179959675
N -4.663559880 1.614741418 0.194672896
C -4.807971805 -0.496589714 -0.257401617
O 0.063744771 -2.046861274 -1.053756433
H 4.708638408 -1.862612202 -0.597741463
H 4.711135606 0.670970277 1.425198127
H -0.282110618 3.349214164 -0.181373249
H -4.916325413 -2.467539896 -0.680322626

