14

O 2.583966546 -1.665134839 1.809554097
C 1.612290084 -1.552812353 -0.644511390
C -1.267604568 -1.801634576 -0.818835413
C -2.306921755 0.724163101 0.220563882
C 0.078768547 2.269494897 0.745725859
C 2.131449251 1.195119852 -0.532411552
H 1.179956501 0.687099638 2.292051897
H 2.667735743 -2.704210991 -1.992779523
H -1.835068045 -2.090017913 -2.782851471
H -1.895628892 -3.431690731 0.273060550
H -3.516946179 1.672199372 -1.156261735
H -3.422451464 0.470353305 1.932894348
H 0.052301496 4.207905129 1.391436715
H 3.989394548 1.995128812 -0.819487860

