13

O 0.428859284 -0.044155681 3.429081152
C 0.964305075 -1.971853698 0.304892589
C -1.308339845 -1.659527776 -1.329032629
C -2.415153456 0.857995603 -1.383264953
C -3.331247253 2.923167340 -1.392422377
C 2.386976090 0.018955030 1.351824219
C 4.257302438 1.569566155 1.151162914
H -0.711239113 1.358808893 3.126770647
H 1.581056426 -3.929810746 0.520944505
H -2.722622253 -3.075861614 -0.810994164
H -0.674495675 -2.197704958 -3.234175083
H -4.134044711 4.768574870 -1.418698112
H 5.589521599 1.279289274 -0.392938180

