11

C -1.823841126 0.688210079 -0.089845933
C 0.091224015 -0.399717931 -1.972341870
O 2.554802403 0.054656549 -3.107272131
C 2.309762089 0.219342344 -0.464315876
N 1.857202710 -1.231921210 1.912238980
C -0.481021905 -0.670647078 2.212820896
H -1.771063399 2.736992524 0.156883116
H -3.779320308 0.085421214 -0.348276260
H -0.218735667 -2.424162782 -2.126278942
H 2.649964343 2.176285952 0.082401319
H -1.449245969 -1.138578736 3.964115247

