14

C -2.864380719 -1.008810412 -0.006366015
C -0.358423088 0.310684845 -0.289262683
C 1.863210187 -1.504516301 -0.086394650
O 4.244685757 -0.348197496 -0.185442264
C -0.264202742 2.680509007 -1.760224951
O 0.037893828 2.326057783 1.602650119
H -2.959655400 -2.118221603 1.733003389
H -3.140923014 -2.286220882 -1.602744246
H -4.399640351 0.365458406 -0.053049299
H 1.764956334 -2.804903800 -1.686371014
H 1.648634620 -2.627050072 1.647720219
H 4.365709166 0.831587663 1.187760956
H -1.578690168 3.023411264 2.059382391
H 1.743458526 3.023779042 -2.172546202

