17

C 2.426294941 -2.207908345 0.377858279
C 1.363762356 0.820604688 -1.103359098
C -1.173290152 0.643275226 -2.488586513
C -2.601891978 0.589104809 -0.008407958
C -1.052355975 -1.565227381 1.083918408
O -1.888034517 2.823845999 1.259344216
C 0.816454131 2.865826889 0.770355434
H 4.066025758 -1.263273222 1.166943771
H 2.909052862 -3.139068984 -1.384394651
H 2.006671221 -3.727222165 1.739847769
H -1.487384309 2.319846215 -3.650911982
H -1.374450553 -1.053093366 -3.638844134
H -4.656807926 0.395258612 0.118515005
H -1.608971971 -3.372183275 0.284002593
H -0.977187281 -1.618734088 3.137977214
H 1.285834511 4.669916257 -0.125980709
H 1.859697299 2.721866154 2.544276931

