29

C     2.38992   1.58604   0.12861
C     1.49945   0.40673   0.16653
C    -0.79525   1.07280   0.09486
C    -0.72229   1.47970   1.43352
O    -0.30230   2.59534   1.86476
C    -1.27293  -0.24777  -0.41889
C    -2.28840  -0.96176   0.51226
C    -1.95051  -0.08658  -1.81004
C     0.04133  -1.21615  -0.65966
C     0.26306  -2.11029   0.49520
N     0.35055  -2.76685   1.45249
N     1.24007  -0.39553  -0.86945
C     1.53352   0.03889  -2.23612
H     2.52638   2.01388  -0.88316
H     1.95177   2.33784   0.78401
H     3.41762   1.37374   0.53554
H     1.35635  -0.04608   1.15105
H    -0.59703   1.86274  -0.64853
H    -1.05062   0.72057   2.19905
H    -3.30881  -0.45829   0.62822
H    -2.49968  -1.95166   0.10072
H    -1.90651  -1.07886   1.53086
H    -2.95385   0.44759  -1.82486
H    -1.30615   0.45901  -2.49640
H    -2.15038  -1.09035  -2.22017
H     0.02003  -1.92555  -1.59553
H     1.22541  -0.72970  -2.93078
H     0.97732   0.97832  -2.45182
H     2.60857   0.24024  -2.35466
29

C     2.39365   1.58627   0.12748
C     1.50966   0.40237   0.16684
C    -0.80726   1.07691   0.09389
C    -0.72472   1.48001   1.43512
O    -0.30012   2.59251   1.86359
C    -1.29704  -0.23017  -0.41547
C    -2.29363  -0.96017   0.51404
C    -1.95489  -0.08561  -1.81103
C     0.06676  -1.23356  -0.66477
C     0.26937  -2.11417   0.49378
N     0.34658  -2.76498   1.45572
N     1.24245  -0.39480  -0.86850
C     1.53366   0.04122  -2.23573
H     2.52710   2.01355  -0.88370
H     1.95187   2.33794   0.78291
H     3.41904   1.37576   0.53534
H     1.35849  -0.04701   1.15112
H    -0.59788   1.86304  -0.64856
H    -1.05144   0.72086   2.19956
H    -3.31202  -0.46191   0.63073
H    -2.49814  -1.95097   0.09986
H    -1.90626  -1.07822   1.53060
H    -2.95654   0.44481  -1.82942
H    -1.30695   0.46011  -2.49548
H    -2.14773  -1.09114  -2.21877
H     0.02539  -1.92814  -1.59776
H     1.22422  -0.72838  -2.93077
H     0.97793   0.97952  -2.45053
H     2.60866   0.24013  -2.35518
29

C     2.39738   1.58649   0.12635
C     1.51988   0.39801   0.16715
C    -0.81927   1.08102   0.09291
C    -0.72715   1.48031   1.43672
O    -0.29794   2.58968   1.86241
C    -1.32115  -0.21257  -0.41204
C    -2.29887  -0.95858   0.51581
C    -1.95927  -0.08464  -1.81201
C     0.09218  -1.25096  -0.66987
C     0.27567  -2.11805   0.49236
N     0.34261  -2.76311   1.45894
N     1.24484  -0.39408  -0.86754
C     1.53380   0.04354  -2.23533
H     2.52783   2.01322  -0.88423
H     1.95197   2.33805   0.78181
H     3.42046   1.37777   0.53514
H     1.36062  -0.04795   1.15119
H    -0.59873   1.86335  -0.64859
H    -1.05225   0.72114   2.20007
H    -3.31522  -0.46554   0.63324
H    -2.49661  -1.95028   0.09899
H    -1.90601  -1.07758   1.53034
H    -2.95924   0.44203  -1.83399
H    -1.30776   0.46122  -2.49457
H    -2.14509  -1.09194  -2.21737
H     0.03074  -1.93073  -1.59998
H     1.22302  -0.72705  -2.93076
H     0.97854   0.98071  -2.44924
H     2.60875   0.24002  -2.35571
29

C     2.40111   1.58671   0.12523
C     1.53010   0.39365   0.16747
C    -0.83127   1.08513   0.09194
C    -0.72959   1.48062   1.43832
O    -0.29575   2.58685   1.86123
C    -1.34526  -0.19497  -0.40862
C    -2.30410  -0.95699   0.51759
C    -1.96365  -0.08367  -1.81300
C     0.11760  -1.26837  -0.67498
C     0.28198  -2.12192   0.49093
N     0.33865  -2.76124   1.46216
N     1.24723  -0.39336  -0.86658
C     1.53394   0.04587  -2.23493
H     2.52855   2.01288  -0.88477
H     1.95207   2.33816   0.78071
H     3.42188   1.37978   0.53494
H     1.36276  -0.04888   1.15126
H    -0.59958   1.86365  -0.64862
H    -1.05307   0.72142   2.20058
H    -3.31843  -0.46917   0.63576
H    -2.49507  -1.94959   0.09813
H    -1.90576  -1.07695   1.53007
H    -2.96193   0.43925  -1.83856
H    -1.30856   0.46233  -2.49366
H    -2.14244  -1.09274  -2.21597
H     0.03609  -1.93331  -1.60221
H     1.22182  -0.72573  -2.93074
H     0.97914   0.98190  -2.44795
H     2.60884   0.23991  -2.35623
29

C     2.40484   1.58694   0.12410
C     1.54031   0.38929   0.16778
C    -0.84328   1.08924   0.09097
C    -0.73202   1.48092   1.43992
O    -0.29357   2.58402   1.86006
C    -1.36937  -0.17736  -0.40519
C    -2.30934  -0.95540   0.51936
C    -1.96803  -0.08270  -1.81399
C     0.14303  -1.28578  -0.68009
C     0.28828  -2.12580   0.48951
N     0.33468  -2.75937   1.46539
N     1.24962  -0.39263  -0.86562
C     1.53407   0.04819  -2.23454
H     2.52928   2.01255  -0.88531
H     1.95217   2.33827   0.77961
H     3.42330   1.38179   0.53473
H     1.36490  -0.04982   1.15134
H    -0.60043   1.86395  -0.64866
H    -1.05389   0.72171   2.20109
H    -3.32164  -0.47280   0.63827
H    -2.49353  -1.94891   0.09727
H    -1.90551  -1.07631   1.52981
H    -2.96463   0.43647  -1.84313
H    -1.30936   0.46343  -2.49275
H    -2.13980  -1.09354  -2.21456
H     0.04145  -1.93590  -1.60443
H     1.22062  -0.72440  -2.93073
H     0.97975   0.98310  -2.44667
H     2.60893   0.23980  -2.35676
29

C     2.40857   1.58716   0.12297
C     1.55053   0.38493   0.16809
C    -0.85528   1.09335   0.09000
C    -0.73445   1.48122   1.44152
O    -0.29139   2.58119   1.85888
C    -1.39348  -0.15976  -0.40177
C    -2.31457  -0.95380   0.52113
C    -1.97241  -0.08173  -1.81498
C     0.16845  -1.30319  -0.68520
C     0.29459  -2.12968   0.48808
N     0.33071  -2.75750   1.46861
N     1.25201  -0.39191  -0.86467
C     1.53421   0.05052  -2.23414
H     2.53001   2.01222  -0.88585
H     1.95227   2.33837   0.77850
H     3.42471   1.38381   0.53453
H     1.36704  -0.05075   1.15141
H    -0.60128   1.86426  -0.64869
H    -1.05470   0.72199   2.20160
H    -3.32485  -0.47643   0.64078
H    -2.49200  -1.94822   0.09641
H    -1.90526  -1.07567   1.52955
H    -2.96732   0.43369  -1.84770
H    -1.31016   0.46454  -2.49184
H    -2.13715  -1.09434  -2.21316
H     0.04680  -1.93849  -1.60666
H     1.21942  -0.72308  -2.93072
H     0.98036   0.98429  -2.44538
H     2.60901   0.23969  -2.35728
29

C     2.41230   1.58739   0.12185
C     1.56075   0.38057   0.16841
C    -0.86729   1.09746   0.08903
C    -0.73689   1.48153   1.44312
O    -0.28921   2.57837   1.85771
C    -1.41759  -0.14216  -0.39834
C    -2.31981  -0.95221   0.52291
C    -1.97679  -0.08076  -1.81596
C     0.19388  -1.32059  -0.69031
C     0.30090  -2.13355   0.48666
N     0.32675  -2.75563   1.47183
N     1.25440  -0.39119  -0.86371
C     1.53435   0.05284  -2.23375
H     2.53073   2.01189  -0.88639
H     1.95237   2.33848   0.77740
H     3.42613   1.38582   0.53433
H     1.36918  -0.05169   1.15148
H    -0.60213   1.86456  -0.64872
H    -1.05552   0.72228   2.20211
H    -3.32806  -0.48006   0.64329
H    -2.49046  -1.94753   0.09554
H    -1.90502  -1.07503   1.52929
H    -2.97002   0.43091  -1.85227
H    -1.31096   0.46565  -2.49093
H    -2.13451  -1.09513  -2.21176
H     0.05216  -1.94108  -1.60888
H     1.21823  -0.72175  -2.93070
H     0.98097   0.98549  -2.44409
H     2.60910   0.23958  -2.35781
29

C     2.41603   1.58761   0.12072
C     1.57096   0.37621   0.16872
C    -0.87929   1.10158   0.08805
C    -0.73932   1.48183   1.44472
O    -0.28702   2.57554   1.85653
C    -1.44170  -0.12455  -0.39492
C    -2.32504  -0.95062   0.52468
C    -1.98117  -0.07979  -1.81695
C     0.21930  -1.33800  -0.69542
C     0.30720  -2.13743   0.48524
N     0.32278  -2.75377   1.47506
N     1.25679  -0.39047  -0.86275
C     1.53449   0.05517  -2.23335
H     2.53146   2.01156  -0.88692
H     1.95247   2.33859   0.77630
H     3.42755   1.38783   0.53413
H     1.37132  -0.05262   1.15155
H    -0.60298   1.86487  -0.64875
H    -1.05634   0.72256   2.20262
H    -3.33126  -0.48368   0.64581
H    -2.48893  -1.94684   0.09468
H    -1.90477  -1.07439   1.52903
H    -2.97271   0.42813  -1.85684
H    -1.31177   0.46675  -2.49002
H    -2.13186  -1.09593  -2.21036
H     0.05751  -1.94367  -1.61111
H     1.21703  -0.72043  -2.93069
H     0.98158   0.98668  -2.44280
H     2.60919   0.23947  -2.35833
29

C     2.41976   1.58783   0.11959
C     1.58118   0.37185   0.16903
C    -0.89130   1.10569   0.08708
C    -0.74175   1.48214   1.44631
O    -0.28484   2.57271   1.85535
C    -1.46581  -0.10695  -0.39150
C    -2.33028  -0.94903   0.52646
C    -1.98555  -0.07882  -1.81794
C     0.24473  -1.35541  -0.70053
C     0.31351  -2.14131   0.48381
N     0.31881  -2.75190   1.47828
N     1.25918  -0.38974  -0.86180
C     1.53463   0.05749  -2.23295
H     2.53219   2.01123  -0.88746
H     1.95257   2.33869   0.77520
H     3.42897   1.38985   0.53393
H     1.37346  -0.05356   1.15163
H    -0.60383   1.86517  -0.64879
H    -1.05715   0.72284   2.20312
H    -3.33447  -0.48731   0.64832
H    -2.48739  -1.94615   0.09382
H    -1.90452  -1.07376   1.52877
H    -2.97541   0.42535  -1.86141
H    -1.31257   0.46786  -2.48911
H    -2.12922  -1.09673  -2.20896
H     0.06286  -1.94626  -1.61333
H     1.21583  -0.71911  -2.93068
H     0.98219   0.98787  -2.44151
H     2.60928   0.23936  -2.35886
29

C     2.42349   1.58806   0.11846
C     1.59140   0.36749   0.16935
C    -0.90331   1.10980   0.08611
C    -0.74418   1.48244   1.44791
O    -0.28266   2.56988   1.85418
C    -1.48992  -0.08935  -0.38807
C    -2.33551  -0.94744   0.52823
C    -1.98993  -0.07785  -1.81893
C     0.27015  -1.37282  -0.70563
C     0.31981  -2.14519   0.48239
N     0.31485  -2.75003   1.48150
N     1.26157  -0.38902  -0.86084
C     1.53476   0.05982  -2.23256
H     2.53291   2.01090  -0.88800
H     1.95267   2.33880   0.77410
H     3.43039   1.39186   0.53372
H     1.37560  -0.05449   1.15170
H    -0.60468   1.86547  -0.64882
H    -1.05797   0.72313   2.20363
H    -3.33768  -0.49094   0.65083
H    -2.48585  -1.94546   0.09295
H    -1.90427  -1.07312   1.52851
H    -2.97810   0.42257  -1.86598
H    -1.31337   0.46896  -2.48820
H    -2.12657  -1.09753  -2.20756
H     0.06822  -1.94885  -1.61556
H     1.21463  -0.71778  -2.93066
H     0.98280   0.98907  -2.44022
H     2.60937   0.23925  -2.35938
29

C     2.42722   1.58828   0.11734
C     1.60161   0.36313   0.16966
C    -0.91531   1.11391   0.08514
C    -0.74662   1.48274   1.44951
O    -0.28048   2.56705   1.85300
C    -1.51402  -0.07175  -0.38465
C    -2.34075  -0.94585   0.53000
C    -1.99431  -0.07689  -1.81991
C     0.29558  -1.39022  -0.71074
C     0.32612  -2.14906   0.48096
N     0.31088  -2.74816   1.48473
N     1.26395  -0.38830  -0.85988
C     1.53490   0.06214  -2.23216
H     2.53364   2.01057  -0.88854
H     1.95277   2.33891   0.77300
H     3.43181   1.39387   0.53352
H     1.37774  -0.05543   1.15177
H    -0.60553   1.86578  -0.64885
H    -1.05879   0.72341   2.20414
H    -3.34089  -0.49457   0.65335
H    -2.48432  -1.94477   0.09209
H    -1.90402  -1.07248   1.52825
H    -2.98080   0.41979  -1.87055
H    -1.31417   0.47007  -2.48728
H    -2.12393  -1.09832  -2.20616
H     0.07357  -1.95144  -1.61778
H     1.21343  -0.71646  -2.93065
H     0.98341   0.99026  -2.43894
H     2.60946   0.23914  -2.35991
29

C     2.43095   1.58851   0.11621
C     1.61183   0.35877   0.16997
C    -0.92732   1.11802   0.08416
C    -0.74905   1.48305   1.45111
O    -0.27829   2.56422   1.85183
C    -1.53813  -0.05414  -0.38122
C    -2.34598  -0.94426   0.53178
C    -1.99869  -0.07592  -1.82090
C     0.32100  -1.40763  -0.71585
C     0.33242  -2.15294   0.47954
N     0.30691  -2.74629   1.48795
N     1.26634  -0.38757  -0.85892
C     1.53504   0.06447  -2.23176
H     2.53436   2.01024  -0.88908
H     1.95286   2.33902   0.77190
H     3.43323   1.39588   0.53332
H     1.37988  -0.05636   1.15184
H    -0.60638   1.86608  -0.64888
H    -1.05960   0.72369   2.20465
H    -3.34409  -0.49820   0.65586
H    -2.48278  -1.94408   0.09123
H    -1.90377  -1.07184   1.52799
H    -2.98349   0.41701  -1.87511
H    -1.31498   0.47118  -2.48637
H    -2.12128  -1.09912  -2.20475
H     0.07892  -1.95402  -1.62001
H     1.21224  -0.71513  -2.93064
H     0.98401   0.99146  -2.43765
H     2.60954   0.23903  -2.36043
29

C     2.43468   1.58873   0.11508
C     1.62205   0.35441   0.17029
C    -0.93932   1.12213   0.08319
C    -0.75148   1.48335   1.45271
O    -0.27611   2.56139   1.85065
C    -1.56224  -0.03654  -0.37780
C    -2.35122  -0.94267   0.53355
C    -2.00307  -0.07495  -1.82189
C     0.34643  -1.42504  -0.72096
C     0.33873  -2.15682   0.47811
N     0.30295  -2.74442   1.49117
N     1.26873  -0.38685  -0.85797
C     1.53518   0.06679  -2.23137
H     2.53509   2.00991  -0.88961
H     1.95296   2.33912   0.77080
H     3.43465   1.39790   0.53312
H     1.38202  -0.05730   1.15191
H    -0.60723   1.86638  -0.64891
H    -1.06042   0.72398   2.20516
H    -3.34730  -0.50182   0.65837
H    -2.48125  -1.94340   0.09037
H    -1.90353  -1.07120   1.52773
H    -2.98619   0.41423  -1.87968
H    -1.31578   0.47228  -2.48546
H    -2.11864  -1.09992  -2.20335
H     0.08428  -1.95661  -1.62223
H     1.21104  -0.71381  -2.93062
H     0.98462   0.99265  -2.43636
H     2.60963   0.23892  -2.36095
29

C     2.43841   1.58895   0.11396
C     1.63226   0.35005   0.17060
C    -0.95133   1.12624   0.08222
C    -0.75391   1.48366   1.45431
O    -0.27393   2.55856   1.84948
C    -1.58635  -0.01894  -0.37437
C    -2.35645  -0.94108   0.53533
C    -2.00745  -0.07398  -1.82288
C     0.37185  -1.44244  -0.72607
C     0.34503  -2.16069   0.47669
N     0.29898  -2.74255   1.49440
N     1.27112  -0.38613  -0.85701
C     1.53532   0.06912  -2.23097
H     2.53582   2.00958  -0.89015
H     1.95306   2.33923   0.76970
H     3.43607   1.39991   0.53292
H     1.38416  -0.05823   1.15199
H    -0.60809   1.86669  -0.64895
H    -1.06124   0.72426   2.20567
H    -3.35051  -0.50545   0.66089
H    -2.47971  -1.94271   0.08950
H    -1.90328  -1.07057   1.52747
H    -2.98888   0.41145  -1.88425
H    -1.31658   0.47339  -2.48455
H    -2.11599  -1.10072  -2.20195
H     0.08963  -1.95920  -1.62446
H     1.20984  -0.71248  -2.93061
H     0.98523   0.99384  -2.43507
H     2.60972   0.23880  -2.36148
29

C     2.44214   1.58918   0.11283
C     1.64248   0.34569   0.17091
C    -0.96334   1.13035   0.08125
C    -0.75635   1.48396   1.45591
O    -0.27175   2.55573   1.84830
C    -1.61046  -0.00134  -0.37095
C    -2.36169  -0.93949   0.53710
C    -2.01183  -0.07301  -1.82386
C     0.39728  -1.45985  -0.73118
C     0.35134  -2.16457   0.47527
N     0.29501  -2.74068   1.49762
N     1.27351  -0.38540  -0.85605
C     1.53545   0.07144  -2.23057
H     2.53654   2.00925  -0.89069
H     1.95316   2.33934   0.76860
H     3.43749   1.40192   0.53272
H     1.38630  -0.05917   1.15206
H    -0.60894   1.86699  -0.64898
H    -1.06205   0.72455   2.20618
H    -3.35372  -0.50908   0.66340
H    -2.47818  -1.94202   0.08864
H    -1.90303  -1.06993   1.52721
H    -2.99158   0.40867  -1.88882
H    -1.31738   0.47449  -2.48364
H    -2.11335  -1.10152  -2.20055
H     0.09498  -1.96179  -1.62668
H     1.20864  -0.71116  -2.93060
H     0.98584   0.99504  -2.43378
H     2.60981   0.23869  -2.36200
29

C     2.44587   1.58940   0.11170
C     1.65269   0.34133   0.17123
C    -0.97534   1.13446   0.08028
C    -0.75878   1.48426   1.45751
O    -0.26957   2.55290   1.84712
C    -1.63457   0.01627  -0.36752
C    -2.36692  -0.93789   0.53888
C    -2.01621  -0.07204  -1.82485
C     0.42270  -1.47726  -0.73629
C     0.35765  -2.16845   0.47384
N     0.29105  -2.73881   1.50084
N     1.27590  -0.38468  -0.85510
C     1.53559   0.07377  -2.23018
H     2.53727   2.00892  -0.89123
H     1.95326   2.33945   0.76750
H     3.43891   1.40394   0.53251
H     1.38844  -0.06010   1.15213
H    -0.60979   1.86729  -0.64901
H    -1.06287   0.72483   2.20669
H    -3.35693  -0.51271   0.66591
H    -2.47664  -1.94133   0.08778
H    -1.90278  -1.06929   1.52694
H    -2.99427   0.40589  -1.89339
H    -1.31818   0.47560  -2.48273
H    -2.11070  -1.10231  -2.19915
H     0.10034  -1.96438  -1.62890
H     1.20744  -0.70983  -2.93058
H     0.98645   0.99623  -2.43250
H     2.60990   0.23858  -2.36253
29

C     2.44960   1.58963   0.11057
C     1.66291   0.33697   0.17154
C    -0.98735   1.13857   0.07930
C    -0.76121   1.48457   1.45911
O    -0.26738   2.55007   1.84595
C    -1.65868   0.03387  -0.36410
C    -2.37216  -0.93630   0.54065
C    -2.02059  -0.07107  -1.82584
C     0.44812  -1.49467  -0.74140
C     0.36395  -2.17232   0.47242
N     0.28708  -2.73694   1.50407
N     1.27829  -0.38396  -0.85414
C     1.53573   0.07609  -2.22978
H     2.53800   2.00859  -0.89176
H     1.95336   2.33955   0.76640
H     3.44033   1.40595   0.53231
H     1.39058  -0.06104   1.15220
H    -0.61064   1.86760  -0.64904
H    -1.06369   0.72511   2.20720
H    -3.36013  -0.51634   0.66843
H    -2.47510  -1.94064   0.08691
H    -1.90253  -1.06865   1.52668
H    -2.99697   0.40311  -1.89796
H    -1.31899   0.47671  -2.48182
H    -2.10806  -1.10311  -2.19775
H     0.10569  -1.96697  -1.63113
H     1.20625  -0.70851  -2.93057
H     0.98706   0.99743  -2.43121
H     2.60998   0.23847  -2.36305
29

C     2.45333   1.58985   0.10945
C     1.67313   0.33261   0.17185
C    -0.99935   1.14269   0.07833
C    -0.76364   1.48487   1.46071
O    -0.26520   2.54724   1.84477
C    -1.68279   0.05147  -0.36067
C    -2.37739  -0.93471   0.54242
C    -2.02497  -0.07010  -1.82683
C     0.47355  -1.51207  -0.74650
C     0.37026  -2.17620   0.47099
N     0.28311  -2.73507   1.50729
N     1.28068  -0.38323  -0.85318
C     1.53587   0.07842  -2.22939
H     2.53872   2.00825  -0.89230
H     1.95346   2.33966   0.76530
H     3.44174   1.40796   0.53211
H     1.39272  -0.06197   1.15228
H    -0.61149   1.86790  -0.64907
H    -1.06450   0.72540   2.20771
H    -3.36334  -0.51996   0.67094
H    -2.47357  -1.93995   0.08605
H    -1.90229  -1.06802   1.52642
H    -2.99966   0.40033  -1.90253
H    -1.31979   0.47781  -2.48091
H    -2.10541  -1.10391  -2.19635
H     0.11105  -1.96956  -1.63335
H     1.20505  -0.70719  -2.93056
H     0.98767   0.99862  -2.42992
H     2.61007   0.23836  -2.36358
29

C     2.45706   1.59007   0.10832
C     1.68334   0.32825   0.17216
C    -1.01136   1.14680   0.07736
C    -0.76608   1.48518   1.46230
O    -0.26302   2.54441   1.84360
C    -1.70690   0.06908  -0.35725
C    -2.38263  -0.93312   0.54420
C    -2.02935  -0.06913  -1.82781
C     0.49897  -1.52948  -0.75161
C     0.37656  -2.18008   0.46957
N     0.27915  -2.73320   1.51051
N     1.28307  -0.38251  -0.85222
C     1.53601   0.08074  -2.22899
H     2.53945   2.00792  -0.89284
H     1.95356   2.33977   0.76420
H     3.44316   1.40997   0.53191
H     1.39486  -0.06291   1.15235
H    -0.61234   1.86821  -0.64911
H    -1.06532   0.72568   2.20822
H    -3.36655  -0.52359   0.67345
H    -2.47203  -1.93926   0.08519
H    -1.90204  -1.06738   1.52616
H    -3.00236   0.39755  -1.90710
H    -1.32059   0.47892  -2.48000
H    -2.10277  -1.10471  -2.19495
H     0.11640  -1.97214  -1.63558
H     1.20385  -0.70586  -2.93054
H     0.98827   0.99981  -2.42863
H     2.61016   0.23825  -2.36410
29

C     2.46079   1.59030   0.10719
C     1.69356   0.32389   0.17248
C    -1.02336   1.15091   0.07639
C    -0.76851   1.48548   1.46390
O    -0.26084   2.54158   1.84242
C    -1.73101   0.08668  -0.35383
C    -2.38786  -0.93153   0.54597
C    -2.03373  -0.06816  -1.82880
C     0.52440  -1.54689  -0.75672
C     0.38287  -2.18395   0.46815
N     0.27518  -2.73133   1.51374
N     1.28545  -0.38179  -0.85127
C     1.53614   0.08307  -2.22859
H     2.54017   2.00759  -0.89338
H     1.95366   2.33988   0.76310
H     3.44458   1.41199   0.53171
H     1.39700  -0.06384   1.15242
H    -0.61319   1.86851  -0.64914
H    -1.06614   0.72596   2.20873
H    -3.36976  -0.52722   0.67596
H    -2.47050  -1.93858   0.08433
H    -1.90179  -1.06674   1.52590
H    -3.00505   0.39477  -1.91167
H    -1.32139   0.48002  -2.47908
H    -2.10012  -1.10551  -2.19354
H     0.12175  -1.97473  -1.63780
H     1.20265  -0.70454  -2.93053
H     0.98888   1.00101  -2.42734
H     2.61025   0.23814  -2.36463
29

C     2.46452   1.59052   0.10606
C     1.70378   0.31953   0.17279
C    -1.03537   1.15502   0.07542
C    -0.77094   1.48578   1.46550
O    -0.25865   2.53876   1.84124
C    -1.75512   0.10428  -0.35040
C    -2.39310  -0.92994   0.54775
C    -2.03811  -0.06719  -1.82979
C     0.54982  -1.56430  -0.76183
C     0.38917  -2.18783   0.46672
N     0.27121  -2.72946   1.51696
N     1.28784  -0.38106  -0.85031
C     1.53628   0.08539  -2.22820
H     2.54090   2.00726  -0.89392
H     1.95376   2.33998   0.76200
H     3.44600   1.41400   0.53151
H     1.39914  -0.06478   1.15249
H    -0.61404   1.86881  -0.64917
H    -1.06695   0.72625   2.20924
H    -3.37297  -0.53085   0.67848
H    -2.46896  -1.93789   0.08346
H    -1.90154  -1.06610   1.52564
H    -3.00775   0.39199  -1.91624
H    -1.32220   0.48113  -2.47817
H    -2.09748  -1.10630  -2.19214
H     0.12711  -1.97732  -1.64003
H     1.20145  -0.70321  -2.93052
H     0.98949   1.00220  -2.42605
H     2.61034   0.23803  -2.36515
29

C     2.46079   1.59030   0.10719
C     1.69356   0.32389   0.17248
C    -1.02336   1.15091   0.07639
C    -0.76851   1.48548   1.46390
O    -0.26084   2.54158   1.84242
C    -1.73101   0.08668  -0.35383
C    -2.38786  -0.93153   0.54597
C    -2.03373  -0.06816  -1.82880
C     0.52440  -1.54689  -0.75672
C     0.38287  -2.18395   0.46815
N     0.27518  -2.73133   1.51374
N     1.28545  -0.38179  -0.85127
C     1.53614   0.08307  -2.22859
H     2.54017   2.00759  -0.89338
H     1.95366   2.33988   0.76310
H     3.44458   1.41199   0.53171
H     1.39700  -0.06384   1.15242
H    -0.61319   1.86851  -0.64914
H    -1.06614   0.72596   2.20873
H    -3.36976  -0.52722   0.67596
H    -2.47050  -1.93858   0.08433
H    -1.90179  -1.06674   1.52590
H    -3.00505   0.39477  -1.91167
H    -1.32139   0.48002  -2.47908
H    -2.10012  -1.10551  -2.19354
H     0.12175  -1.97473  -1.63780
H     1.20265  -0.70454  -2.93053
H     0.98888   1.00101  -2.42734
H     2.61025   0.23814  -2.36463
29

C     2.45706   1.59007   0.10832
C     1.68334   0.32825   0.17216
C    -1.01136   1.14680   0.07736
C    -0.76608   1.48518   1.46230
O    -0.26302   2.54441   1.84360
C    -1.70690   0.06908  -0.35725
C    -2.38263  -0.93312   0.54420
C    -2.02935  -0.06913  -1.82781
C     0.49897  -1.52948  -0.75161
C     0.37656  -2.18008   0.46957
N     0.27915  -2.73320   1.51051
N     1.28307  -0.38251  -0.85222
C     1.53601   0.08074  -2.22899
H     2.53945   2.00792  -0.89284
H     1.95356   2.33977   0.76420
H     3.44316   1.40997   0.53191
H     1.39486  -0.06291   1.15235
H    -0.61234   1.86821  -0.64911
H    -1.06532   0.72568   2.20822
H    -3.36655  -0.52359   0.67345
H    -2.47203  -1.93926   0.08519
H    -1.90204  -1.06738   1.52616
H    -3.00236   0.39755  -1.90710
H    -1.32059   0.47892  -2.48000
H    -2.10277  -1.10471  -2.19495
H     0.11640  -1.97214  -1.63558
H     1.20385  -0.70586  -2.93054
H     0.98827   0.99981  -2.42863
H     2.61016   0.23825  -2.36410
29

C     2.45333   1.58985   0.10945
C     1.67313   0.33261   0.17185
C    -0.99935   1.14269   0.07833
C    -0.76364   1.48487   1.46071
O    -0.26520   2.54724   1.84477
C    -1.68279   0.05147  -0.36067
C    -2.37739  -0.93471   0.54242
C    -2.02497  -0.07010  -1.82683
C     0.47355  -1.51207  -0.74650
C     0.37026  -2.17620   0.47099
N     0.28311  -2.73507   1.50729
N     1.28068  -0.38323  -0.85318
C     1.53587   0.07842  -2.22939
H     2.53872   2.00825  -0.89230
H     1.95346   2.33966   0.76530
H     3.44174   1.40796   0.53211
H     1.39272  -0.06197   1.15228
H    -0.61149   1.86790  -0.64907
H    -1.06450   0.72540   2.20771
H    -3.36334  -0.51996   0.67094
H    -2.47357  -1.93995   0.08605
H    -1.90229  -1.06802   1.52642
H    -2.99966   0.40033  -1.90253
H    -1.31979   0.47781  -2.48091
H    -2.10541  -1.10391  -2.19635
H     0.11105  -1.96956  -1.63335
H     1.20505  -0.70719  -2.93056
H     0.98767   0.99862  -2.42992
H     2.61007   0.23836  -2.36358
29

C     2.44960   1.58963   0.11057
C     1.66291   0.33697   0.17154
C    -0.98735   1.13857   0.07930
C    -0.76121   1.48457   1.45911
O    -0.26738   2.55007   1.84595
C    -1.65868   0.03387  -0.36410
C    -2.37216  -0.93630   0.54065
C    -2.02059  -0.07107  -1.82584
C     0.44812  -1.49467  -0.74140
C     0.36395  -2.17232   0.47242
N     0.28708  -2.73694   1.50407
N     1.27829  -0.38396  -0.85414
C     1.53573   0.07609  -2.22978
H     2.53800   2.00859  -0.89176
H     1.95336   2.33955   0.76640
H     3.44033   1.40595   0.53231
H     1.39058  -0.06104   1.15220
H    -0.61064   1.86760  -0.64904
H    -1.06369   0.72511   2.20720
H    -3.36013  -0.51634   0.66843
H    -2.47510  -1.94064   0.08691
H    -1.90253  -1.06865   1.52668
H    -2.99697   0.40311  -1.89796
H    -1.31899   0.47671  -2.48182
H    -2.10806  -1.10311  -2.19775
H     0.10569  -1.96697  -1.63113
H     1.20625  -0.70851  -2.93057
H     0.98706   0.99743  -2.43121
H     2.60998   0.23847  -2.36305
29

C     2.44587   1.58940   0.11170
C     1.65269   0.34133   0.17123
C    -0.97534   1.13446   0.08028
C    -0.75878   1.48426   1.45751
O    -0.26957   2.55290   1.84712
C    -1.63457   0.01627  -0.36752
C    -2.36692  -0.93789   0.53888
C    -2.01621  -0.07204  -1.82485
C     0.42270  -1.47726  -0.73629
C     0.35765  -2.16845   0.47384
N     0.29105  -2.73881   1.50084
N     1.27590  -0.38468  -0.85510
C     1.53559   0.07377  -2.23018
H     2.53727   2.00892  -0.89123
H     1.95326   2.33945   0.76750
H     3.43891   1.40394   0.53251
H     1.38844  -0.06010   1.15213
H    -0.60979   1.86729  -0.64901
H    -1.06287   0.72483   2.20669
H    -3.35693  -0.51271   0.66591
H    -2.47664  -1.94133   0.08778
H    -1.90278  -1.06929   1.52694
H    -2.99427   0.40589  -1.89339
H    -1.31818   0.47560  -2.48273
H    -2.11070  -1.10231  -2.19915
H     0.10034  -1.96438  -1.62890
H     1.20744  -0.70983  -2.93058
H     0.98645   0.99623  -2.43250
H     2.60990   0.23858  -2.36253
29

C     2.44214   1.58918   0.11283
C     1.64248   0.34569   0.17091
C    -0.96334   1.13035   0.08125
C    -0.75635   1.48396   1.45591
O    -0.27175   2.55573   1.84830
C    -1.61046  -0.00134  -0.37095
C    -2.36169  -0.93949   0.53710
C    -2.01183  -0.07301  -1.82386
C     0.39728  -1.45985  -0.73118
C     0.35134  -2.16457   0.47527
N     0.29501  -2.74068   1.49762
N     1.27351  -0.38540  -0.85605
C     1.53545   0.07144  -2.23057
H     2.53654   2.00925  -0.89069
H     1.95316   2.33934   0.76860
H     3.43749   1.40192   0.53272
H     1.38630  -0.05917   1.15206
H    -0.60894   1.86699  -0.64898
H    -1.06205   0.72455   2.20618
H    -3.35372  -0.50908   0.66340
H    -2.47818  -1.94202   0.08864
H    -1.90303  -1.06993   1.52721
H    -2.99158   0.40867  -1.88882
H    -1.31738   0.47449  -2.48364
H    -2.11335  -1.10152  -2.20055
H     0.09498  -1.96179  -1.62668
H     1.20864  -0.71116  -2.93060
H     0.98584   0.99504  -2.43378
H     2.60981   0.23869  -2.36200
29

C     2.43841   1.58895   0.11396
C     1.63226   0.35005   0.17060
C    -0.95133   1.12624   0.08222
C    -0.75391   1.48366   1.45431
O    -0.27393   2.55856   1.84948
C    -1.58635  -0.01894  -0.37437
C    -2.35645  -0.94108   0.53533
C    -2.00745  -0.07398  -1.82288
C     0.37185  -1.44244  -0.72607
C     0.34503  -2.16069   0.47669
N     0.29898  -2.74255   1.49440
N     1.27112  -0.38613  -0.85701
C     1.53532   0.06912  -2.23097
H     2.53582   2.00958  -0.89015
H     1.95306   2.33923   0.76970
H     3.43607   1.39991   0.53292
H     1.38416  -0.05823   1.15199
H    -0.60809   1.86669  -0.64895
H    -1.06124   0.72426   2.20567
H    -3.35051  -0.50545   0.66089
H    -2.47971  -1.94271   0.08950
H    -1.90328  -1.07057   1.52747
H    -2.98888   0.41145  -1.88425
H    -1.31658   0.47339  -2.48455
H    -2.11599  -1.10072  -2.20195
H     0.08963  -1.95920  -1.62446
H     1.20984  -0.71248  -2.93061
H     0.98523   0.99384  -2.43507
H     2.60972   0.23880  -2.36148
29

C     2.43468   1.58873   0.11508
C     1.62205   0.35441   0.17029
C    -0.93932   1.12213   0.08319
C    -0.75148   1.48335   1.45271
O    -0.27611   2.56139   1.85065
C    -1.56224  -0.03654  -0.37780
C    -2.35122  -0.94267   0.53355
C    -2.00307  -0.07495  -1.82189
C     0.34643  -1.42504  -0.72096
C     0.33873  -2.15682   0.47811
N     0.30295  -2.74442   1.49117
N     1.26873  -0.38685  -0.85797
C     1.53518   0.06679  -2.23137
H     2.53509   2.00991  -0.88961
H     1.95296   2.33912   0.77080
H     3.43465   1.39790   0.53312
H     1.38202  -0.05730   1.15191
H    -0.60723   1.86638  -0.64891
H    -1.06042   0.72398   2.20516
H    -3.34730  -0.50182   0.65837
H    -2.48125  -1.94340   0.09037
H    -1.90353  -1.07120   1.52773
H    -2.98619   0.41423  -1.87968
H    -1.31578   0.47228  -2.48546
H    -2.11864  -1.09992  -2.20335
H     0.08428  -1.95661  -1.62223
H     1.21104  -0.71381  -2.93062
H     0.98462   0.99265  -2.43636
H     2.60963   0.23892  -2.36095
29

C     2.43095   1.58851   0.11621
C     1.61183   0.35877   0.16997
C    -0.92732   1.11802   0.08416
C    -0.74905   1.48305   1.45111
O    -0.27829   2.56422   1.85183
C    -1.53813  -0.05414  -0.38122
C    -2.34598  -0.94426   0.53178
C    -1.99869  -0.07592  -1.82090
C     0.32100  -1.40763  -0.71585
C     0.33242  -2.15294   0.47954
N     0.30691  -2.74629   1.48795
N     1.26634  -0.38757  -0.85892
C     1.53504   0.06447  -2.23176
H     2.53436   2.01024  -0.88908
H     1.95286   2.33902   0.77190
H     3.43323   1.39588   0.53332
H     1.37988  -0.05636   1.15184
H    -0.60638   1.86608  -0.64888
H    -1.05960   0.72369   2.20465
H    -3.34409  -0.49820   0.65586
H    -2.48278  -1.94408   0.09123
H    -1.90377  -1.07184   1.52799
H    -2.98349   0.41701  -1.87511
H    -1.31498   0.47118  -2.48637
H    -2.12128  -1.09912  -2.20475
H     0.07892  -1.95402  -1.62001
H     1.21224  -0.71513  -2.93064
H     0.98401   0.99146  -2.43765
H     2.60954   0.23903  -2.36043
29

C     2.42722   1.58828   0.11734
C     1.60161   0.36313   0.16966
C    -0.91531   1.11391   0.08514
C    -0.74662   1.48274   1.44951
O    -0.28048   2.56705   1.85300
C    -1.51402  -0.07175  -0.38465
C    -2.34075  -0.94585   0.53000
C    -1.99431  -0.07689  -1.81991
C     0.29558  -1.39022  -0.71074
C     0.32612  -2.14906   0.48096
N     0.31088  -2.74816   1.48473
N     1.26395  -0.38830  -0.85988
C     1.53490   0.06214  -2.23216
H     2.53364   2.01057  -0.88854
H     1.95277   2.33891   0.77300
H     3.43181   1.39387   0.53352
H     1.37774  -0.05543   1.15177
H    -0.60553   1.86578  -0.64885
H    -1.05879   0.72341   2.20414
H    -3.34089  -0.49457   0.65335
H    -2.48432  -1.94477   0.09209
H    -1.90402  -1.07248   1.52825
H    -2.98080   0.41979  -1.87055
H    -1.31417   0.47007  -2.48728
H    -2.12393  -1.09832  -2.20616
H     0.07357  -1.95144  -1.61778
H     1.21343  -0.71646  -2.93065
H     0.98341   0.99026  -2.43894
H     2.60946   0.23914  -2.35991
29

C     2.42349   1.58806   0.11846
C     1.59140   0.36749   0.16935
C    -0.90331   1.10980   0.08611
C    -0.74418   1.48244   1.44791
O    -0.28266   2.56988   1.85418
C    -1.48992  -0.08935  -0.38807
C    -2.33551  -0.94744   0.52823
C    -1.98993  -0.07785  -1.81893
C     0.27015  -1.37282  -0.70563
C     0.31981  -2.14519   0.48239
N     0.31485  -2.75003   1.48150
N     1.26157  -0.38902  -0.86084
C     1.53476   0.05982  -2.23256
H     2.53291   2.01090  -0.88800
H     1.95267   2.33880   0.77410
H     3.43039   1.39186   0.53372
H     1.37560  -0.05449   1.15170
H    -0.60468   1.86547  -0.64882
H    -1.05797   0.72313   2.20363
H    -3.33768  -0.49094   0.65083
H    -2.48585  -1.94546   0.09295
H    -1.90427  -1.07312   1.52851
H    -2.97810   0.42257  -1.86598
H    -1.31337   0.46896  -2.48820
H    -2.12657  -1.09753  -2.20756
H     0.06822  -1.94885  -1.61556
H     1.21463  -0.71778  -2.93066
H     0.98280   0.98907  -2.44022
H     2.60937   0.23925  -2.35938
29

C     2.41976   1.58783   0.11959
C     1.58118   0.37185   0.16903
C    -0.89130   1.10569   0.08708
C    -0.74175   1.48214   1.44631
O    -0.28484   2.57271   1.85535
C    -1.46581  -0.10695  -0.39150
C    -2.33028  -0.94903   0.52646
C    -1.98555  -0.07882  -1.81794
C     0.24473  -1.35541  -0.70053
C     0.31351  -2.14131   0.48381
N     0.31881  -2.75190   1.47828
N     1.25918  -0.38974  -0.86180
C     1.53463   0.05749  -2.23295
H     2.53219   2.01123  -0.88746
H     1.95257   2.33869   0.77520
H     3.42897   1.38985   0.53393
H     1.37346  -0.05356   1.15163
H    -0.60383   1.86517  -0.64879
H    -1.05715   0.72284   2.20312
H    -3.33447  -0.48731   0.64832
H    -2.48739  -1.94615   0.09382
H    -1.90452  -1.07376   1.52877
H    -2.97541   0.42535  -1.86141
H    -1.31257   0.46786  -2.48911
H    -2.12922  -1.09673  -2.20896
H     0.06286  -1.94626  -1.61333
H     1.21583  -0.71911  -2.93068
H     0.98219   0.98787  -2.44151
H     2.60928   0.23936  -2.35886
29

C     2.41603   1.58761   0.12072
C     1.57096   0.37621   0.16872
C    -0.87929   1.10158   0.08805
C    -0.73932   1.48183   1.44472
O    -0.28702   2.57554   1.85653
C    -1.44170  -0.12455  -0.39492
C    -2.32504  -0.95062   0.52468
C    -1.98117  -0.07979  -1.81695
C     0.21930  -1.33800  -0.69542
C     0.30720  -2.13743   0.48524
N     0.32278  -2.75377   1.47506
N     1.25679  -0.39047  -0.86275
C     1.53449   0.05517  -2.23335
H     2.53146   2.01156  -0.88692
H     1.95247   2.33859   0.77630
H     3.42755   1.38783   0.53413
H     1.37132  -0.05262   1.15155
H    -0.60298   1.86487  -0.64875
H    -1.05634   0.72256   2.20262
H    -3.33126  -0.48368   0.64581
H    -2.48893  -1.94684   0.09468
H    -1.90477  -1.07439   1.52903
H    -2.97271   0.42813  -1.85684
H    -1.31177   0.46675  -2.49002
H    -2.13186  -1.09593  -2.21036
H     0.05751  -1.94367  -1.61111
H     1.21703  -0.72043  -2.93069
H     0.98158   0.98668  -2.44280
H     2.60919   0.23947  -2.35833
29

C     2.41230   1.58739   0.12185
C     1.56075   0.38057   0.16841
C    -0.86729   1.09746   0.08903
C    -0.73689   1.48153   1.44312
O    -0.28921   2.57837   1.85771
C    -1.41759  -0.14216  -0.39834
C    -2.31981  -0.95221   0.52291
C    -1.97679  -0.08076  -1.81596
C     0.19388  -1.32059  -0.69031
C     0.30090  -2.13355   0.48666
N     0.32675  -2.75563   1.47183
N     1.25440  -0.39119  -0.86371
C     1.53435   0.05284  -2.23375
H     2.53073   2.01189  -0.88639
H     1.95237   2.33848   0.77740
H     3.42613   1.38582   0.53433
H     1.36918  -0.05169   1.15148
H    -0.60213   1.86456  -0.64872
H    -1.05552   0.72228   2.20211
H    -3.32806  -0.48006   0.64329
H    -2.49046  -1.94753   0.09554
H    -1.90502  -1.07503   1.52929
H    -2.97002   0.43091  -1.85227
H    -1.31096   0.46565  -2.49093
H    -2.13451  -1.09513  -2.21176
H     0.05216  -1.94108  -1.60888
H     1.21823  -0.72175  -2.93070
H     0.98097   0.98549  -2.44409
H     2.60910   0.23958  -2.35781
29

C     2.40857   1.58716   0.12297
C     1.55053   0.38493   0.16809
C    -0.85528   1.09335   0.09000
C    -0.73445   1.48122   1.44152
O    -0.29139   2.58119   1.85888
C    -1.39348  -0.15976  -0.40177
C    -2.31457  -0.95380   0.52113
C    -1.97241  -0.08173  -1.81498
C     0.16845  -1.30319  -0.68520
C     0.29459  -2.12968   0.48808
N     0.33071  -2.75750   1.46861
N     1.25201  -0.39191  -0.86467
C     1.53421   0.05052  -2.23414
H     2.53001   2.01222  -0.88585
H     1.95227   2.33837   0.77850
H     3.42471   1.38381   0.53453
H     1.36704  -0.05075   1.15141
H    -0.60128   1.86426  -0.64869
H    -1.05470   0.72199   2.20160
H    -3.32485  -0.47643   0.64078
H    -2.49200  -1.94822   0.09641
H    -1.90526  -1.07567   1.52955
H    -2.96732   0.43369  -1.84770
H    -1.31016   0.46454  -2.49184
H    -2.13715  -1.09434  -2.21316
H     0.04680  -1.93849  -1.60666
H     1.21942  -0.72308  -2.93072
H     0.98036   0.98429  -2.44538
H     2.60901   0.23969  -2.35728
29

C     2.40484   1.58694   0.12410
C     1.54031   0.38929   0.16778
C    -0.84328   1.08924   0.09097
C    -0.73202   1.48092   1.43992
O    -0.29357   2.58402   1.86006
C    -1.36937  -0.17736  -0.40519
C    -2.30934  -0.95540   0.51936
C    -1.96803  -0.08270  -1.81399
C     0.14303  -1.28578  -0.68009
C     0.28828  -2.12580   0.48951
N     0.33468  -2.75937   1.46539
N     1.24962  -0.39263  -0.86562
C     1.53407   0.04819  -2.23454
H     2.52928   2.01255  -0.88531
H     1.95217   2.33827   0.77961
H     3.42330   1.38179   0.53473
H     1.36490  -0.04982   1.15134
H    -0.60043   1.86395  -0.64866
H    -1.05389   0.72171   2.20109
H    -3.32164  -0.47280   0.63827
H    -2.49353  -1.94891   0.09727
H    -1.90551  -1.07631   1.52981
H    -2.96463   0.43647  -1.84313
H    -1.30936   0.46343  -2.49275
H    -2.13980  -1.09354  -2.21456
H     0.04145  -1.93590  -1.60443
H     1.22062  -0.72440  -2.93073
H     0.97975   0.98310  -2.44667
H     2.60893   0.23980  -2.35676
29

C     2.40111   1.58671   0.12523
C     1.53010   0.39365   0.16747
C    -0.83127   1.08513   0.09194
C    -0.72959   1.48062   1.43832
O    -0.29575   2.58685   1.86123
C    -1.34526  -0.19497  -0.40862
C    -2.30410  -0.95699   0.51759
C    -1.96365  -0.08367  -1.81300
C     0.11760  -1.26837  -0.67498
C     0.28198  -2.12192   0.49093
N     0.33865  -2.76124   1.46216
N     1.24723  -0.39336  -0.86658
C     1.53394   0.04587  -2.23493
H     2.52855   2.01288  -0.88477
H     1.95207   2.33816   0.78071
H     3.42188   1.37978   0.53494
H     1.36276  -0.04888   1.15126
H    -0.59958   1.86365  -0.64862
H    -1.05307   0.72142   2.20058
H    -3.31843  -0.46917   0.63576
H    -2.49507  -1.94959   0.09813
H    -1.90576  -1.07695   1.53007
H    -2.96193   0.43925  -1.83856
H    -1.30856   0.46233  -2.49366
H    -2.14244  -1.09274  -2.21597
H     0.03609  -1.93331  -1.60221
H     1.22182  -0.72573  -2.93074
H     0.97914   0.98190  -2.44795
H     2.60884   0.23991  -2.35623
29

C     2.39738   1.58649   0.12635
C     1.51988   0.39801   0.16715
C    -0.81927   1.08102   0.09291
C    -0.72715   1.48031   1.43672
O    -0.29794   2.58968   1.86241
C    -1.32115  -0.21257  -0.41204
C    -2.29887  -0.95858   0.51581
C    -1.95927  -0.08464  -1.81201
C     0.09218  -1.25096  -0.66987
C     0.27567  -2.11805   0.49236
N     0.34261  -2.76311   1.45894
N     1.24484  -0.39408  -0.86754
C     1.53380   0.04354  -2.23533
H     2.52783   2.01322  -0.88423
H     1.95197   2.33805   0.78181
H     3.42046   1.37777   0.53514
H     1.36062  -0.04795   1.15119
H    -0.59873   1.86335  -0.64859
H    -1.05225   0.72114   2.20007
H    -3.31522  -0.46554   0.63324
H    -2.49661  -1.95028   0.09899
H    -1.90601  -1.07758   1.53034
H    -2.95924   0.44203  -1.83399
H    -1.30776   0.46122  -2.49457
H    -2.14509  -1.09194  -2.21737
H     0.03074  -1.93073  -1.59998
H     1.22302  -0.72705  -2.93076
H     0.97854   0.98071  -2.44924
H     2.60875   0.24002  -2.35571
29

C     2.39365   1.58627   0.12748
C     1.50966   0.40237   0.16684
C    -0.80726   1.07691   0.09389
C    -0.72472   1.48001   1.43512
O    -0.30012   2.59251   1.86359
C    -1.29704  -0.23017  -0.41547
C    -2.29363  -0.96017   0.51404
C    -1.95489  -0.08561  -1.81103
C     0.06676  -1.23356  -0.66477
C     0.26937  -2.11417   0.49378
N     0.34658  -2.76498   1.45572
N     1.24245  -0.39480  -0.86850
C     1.53366   0.04122  -2.23573
H     2.52710   2.01355  -0.88370
H     1.95187   2.33794   0.78291
H     3.41904   1.37576   0.53534
H     1.35849  -0.04701   1.15112
H    -0.59788   1.86304  -0.64856
H    -1.05144   0.72086   2.19956
H    -3.31202  -0.46191   0.63073
H    -2.49814  -1.95097   0.09986
H    -1.90626  -1.07822   1.53060
H    -2.95654   0.44481  -1.82942
H    -1.30695   0.46011  -2.49548
H    -2.14773  -1.09114  -2.21877
H     0.02539  -1.92814  -1.59776
H     1.22422  -0.72838  -2.93077
H     0.97793   0.97952  -2.45053
H     2.60866   0.24013  -2.35518
