12

C -3.005399547 3.614553198 1.126479651
C -0.954307517 2.091412909 2.337291354
C 1.124014485 1.299450384 1.185748927
C 3.174567792 -0.224242933 2.396564787
H 3.431887679 -2.028122258 1.422636093
H 2.749057877 -0.619102020 4.375212995
H 4.985659011 0.766378959 2.314210825
H 1.392658442 1.776155852 -0.798088998
H -1.223223613 1.614671385 4.321127125
H -3.263831670 5.418104088 2.100712081
H -2.580000880 4.009949949 -0.852068741
H -4.815953555 2.622880259 1.208454723

