19

C 4.247993080 -1.716322266 -2.295821995
C 1.316294930 0.335062690 0.955200828
O 1.463937929 1.057823671 3.112796141
C 3.493274449 0.678577823 -0.873213605
C -4.392269399 2.175367885 1.363317345
C -3.391777032 -0.517259369 1.558460933
C -1.042059746 -0.960262403 -0.040291701
H 4.773933132 -3.222111997 -0.987097496
H 5.870020847 -1.345961854 -3.511537443
H 2.722300394 -2.415982630 -3.493365780
H -2.991258632 3.537278725 2.022991444
H 5.079601038 1.435113161 0.202067772
H 2.916177300 2.134686220 -2.228572500
H -6.089985271 2.420335804 2.507500876
H -4.878726250 2.648324760 -0.588638803
H -4.856167248 -1.848461460 0.965653413
H -2.946191782 -0.951487214 3.525667605
H -1.352645910 -0.382892660 -2.004324805
H -0.595072527 -2.981804635 -0.125275406

