19

C 3.731201834 -1.739070544 -1.105556566
C 1.419919650 -0.505094011 0.281139507
O 1.735527288 -0.281849704 2.750431330
C 1.211253313 2.012981149 -0.892057311
C -2.456157641 2.295881162 1.085315520
C -3.204173092 -0.476665481 0.895878961
C -1.062573725 -1.927305313 -0.415857477
H 5.454014422 -0.693261411 -0.685913249
H 3.485422845 -1.912016540 -3.145954334
H 3.904825090 -3.618189220 -0.284386755
H -0.508930722 2.122949017 2.100399823
H 2.320057336 3.527621110 -0.061728206
H 0.570444784 2.298243074 -2.826538783
H -3.443281650 3.390705406 2.536397245
H -2.754482317 3.343375590 -0.669089074
H -4.989205365 -0.708614321 -0.113147994
H -3.443408904 -1.208683116 2.804387943
H -1.343035689 -2.013235147 -2.465714194
H -0.915239791 -3.857329242 0.291090030

