15

C 3.712974745 -0.874376410 -1.117601359
C 1.668985553 -2.174049102 0.161827774
C -0.167355865 -3.081525444 1.196516643
C -2.530062808 -0.077431433 0.489406223
N -3.428756705 -0.092752010 -1.849554667
C -1.552737350 2.240632090 1.506160571
N 0.641706186 2.753068121 2.378941693
H 5.541491772 -1.518083306 -0.413346145
H 3.641776271 -1.217437612 -3.150414182
H 3.550568054 1.149412271 -0.727510033
H -1.322091892 -4.390230327 2.200096671
H -2.833953162 1.088284412 -3.228611219
H -4.520813294 -1.534785613 -2.431102499
H -3.127953993 3.594485062 1.637972294
H 0.623251329 4.479275035 3.217063348

