14

O -4.294982688 -0.212835148 -1.894463252
C -2.603925701 -0.216163825 0.184153376
C -0.381506848 -2.006735547 -0.264277839
N 1.276131542 -0.028771269 0.986277752
C -0.640204364 1.907412223 -0.009202191
C 3.905937515 0.319981977 0.327497739
O 5.393334900 1.095970099 1.813326085
H -5.962380456 -0.257995615 -1.206008548
H 1.042306582 -0.110626249 2.896223001
H -0.246560655 -3.864281923 0.626001618
H 0.262401096 -2.108381043 -2.251123623
H -0.684312103 3.609041415 1.155930201
H -0.040253396 2.374872810 -1.958561855
H 4.309470841 -0.172668018 -1.649344552

