14

O -4.616886176 -0.128544235 -1.235390955
C -2.385359600 -0.198325245 0.155440896
C -0.221082404 -1.879111986 -0.828249991
N 1.314911500 0.003359328 0.632113615
C -0.522269921 2.014363578 -0.165550345
C 3.983840661 0.184255573 0.677046182
O 5.078228360 2.130581584 0.976775963
H -5.979585845 -0.471189490 -0.099495044
H 0.056059406 -0.381217078 2.333971124
H 0.004917842 -3.822350393 -0.183927630
H 0.223541977 -1.676592097 -2.848228871
H -0.558095613 3.647104108 1.082576306
H -0.094704872 2.555426863 -2.124324322
H 4.905347351 -1.673336969 0.486532573

