14

N 3.125065112 -1.536499557 1.151322388
C 1.520755058 -0.447536997 -0.177040938
O 2.071202496 1.600268856 -1.929734329
C 4.249449095 2.011322971 -2.946176551
C -3.099498138 1.126950552 -0.469249365
C -2.760335555 -0.757978503 -2.525347336
C -1.199655044 -0.975603691 -0.148736621
H 4.920642114 -0.896777734 0.879959965
H -2.373965628 3.010312911 -0.782666905
H 5.583987290 0.513402173 -2.243326083
H -4.771778523 1.020988109 0.699999060
H -1.815941447 -0.140985002 -4.228803270
H -4.192654869 -2.188938178 -2.801079165
H -1.669294637 -2.475396262 1.154780530

