14

N 3.315993686 -3.054676499 0.195233766
C 1.927505038 -1.329535221 -0.629604154
O 2.660568220 0.503302872 -2.343118382
C 1.738776332 2.879700464 -1.956169443
C -1.871239690 1.471391500 -0.846824921
C -2.624484636 -0.872530091 -2.206453709
C -0.799440039 -1.001076821 -0.031214987
H 5.115401257 -2.866860021 -0.453732200
H -0.738091819 2.867502263 -2.335110100
H 1.942007798 3.385582586 0.054990709
H -3.114840976 2.560055879 0.352484038
H -1.877965074 -1.151370519 -4.092247408
H -4.504773507 -1.613020010 -1.898562068
H -1.423134981 -1.837276568 1.723817752

