13

C 2.429985236 -0.906956063 -0.457076335
C 1.345057960 1.199260091 1.099547860
C -0.516238180 2.952015804 -0.120670144
C -2.460203318 -0.718745105 -0.411869721
C 0.001752419 -1.292680951 0.938127341
H 2.396551351 -0.718703380 -2.498274062
H 4.052522531 -1.902563204 0.293952473
H 2.277752830 1.828121147 2.809238095
H -0.147056484 3.072591764 -2.168586527
H -2.797475741 1.491374692 -0.349391898
H -4.118660564 -1.229336707 0.701500995
H -2.636100632 -1.453183119 -2.325624393
H -0.018160117 -2.622118737 2.491777618

