10

N -3.123124855 -1.046224627 -0.059183482
C -0.739323108 -0.901971174 -0.714290265
N 1.004391949 -1.895319147 -1.892886162
C 2.524956579 -0.847897794 0.218993576
N 2.748321621 1.646481957 0.586272412
N 0.645813393 2.790201429 0.322648872
H -3.871466529 0.413125840 0.897082244
H -4.107172069 -2.663603706 -0.245979168
H 3.914256713 -2.126447638 0.994775076
H 1.002409021 4.642781547 -0.107816737

