19

C 1.357096933 -0.477445485 -2.864211475
C 1.338502236 -0.536652286 1.649725162
O 3.387942986 -1.361962146 2.794821072
C 0.716376088 2.085255652 1.064872312
C -1.041602451 1.449798450 -1.071047370
C -2.694637072 -0.782996247 -0.245796337
C -0.920867112 -2.195716399 1.590256558
H 2.853928209 0.856995975 -3.343195254
H 0.197219037 -0.830235809 -4.530768050
H 2.227285691 -2.283315693 -2.359635797
H 4.672786486 -0.073105680 2.800146887
H -0.352174501 3.026547869 2.614413851
H 2.311965188 3.268365350 0.521554263
H -3.079055005 3.712576599 0.289490641
H -1.415292693 2.751920075 -2.586922418
H -3.231023435 -1.956560220 -1.852302366
H -4.403128672 -0.167374120 0.706049963
H -0.431583344 -4.126486789 1.053930212
H -1.722939653 -2.280023280 3.502720491

