16

C 2.076155789 0.364989452 -3.359474564
N 1.488686991 -1.016101107 -1.089242409
C 2.411094835 -0.792587722 1.256299282
C -0.743466370 -2.131433491 -0.339632067
C -2.659921518 -0.868874057 1.167879922
O -4.552206520 -2.010438636 1.813111223
C -2.433813122 1.925629598 1.803436203
H 4.096188791 0.265739599 -3.748578319
H 1.506418783 2.349846733 -3.210761376
H 1.038923613 -0.492200580 -4.919749238
H 2.868172115 -2.486315421 2.300379769
H 3.033877871 1.023946097 2.008173364
H -1.265812957 -3.977496284 -1.087464120
H -4.244013279 2.793105938 1.344000035
H -2.135179004 2.150105459 3.829819743
H -0.933056167 2.909777497 0.793172951

