14

O 3.120337263 2.311397609 -3.100902753
C 1.820258564 0.595308743 -1.737716347
C 2.754662351 -1.261390166 0.215950173
N 0.045445060 -2.085165418 0.477549665
C -1.716426523 -0.710030520 2.222444477
C -3.037311201 0.539368578 -0.104482164
C -0.570123890 -0.142941341 -1.343753634
H 4.045482942 -2.775856650 -0.328010913
H 3.437636037 -0.334280382 1.927191249
H -0.751872401 0.722925538 3.363353888
H -2.837794143 -1.950186249 3.426545990
H -3.530909025 2.531016477 0.023495740
H -4.643307779 -0.557461213 -0.783738493
H 1.956802766 3.318656631 -4.061843208

