13

C 4.533805728 -0.318454265 0.407065942
C 1.997201369 0.177855977 -0.718365100
C -0.155314304 -0.801292537 0.293244506
O -0.694438862 -2.159303833 2.106736755
N -2.409906140 0.021630863 -1.238102636
C -4.619611993 -0.681065648 -0.614216870
H -6.250724619 -0.099626588 -1.700664695
H -4.719683801 -1.874143537 1.053042267
H -2.116980677 1.139991892 -2.760625098
H 1.871081614 1.355245493 -2.390657107
H 5.810846757 -1.223260841 -0.944474194
H 5.451196708 1.425117379 1.036270060
H 4.344021044 -1.561591586 2.038468830

