15

C 4.116562269 0.121121316 0.818426004
C 1.707818404 0.325024824 -0.652650214
C -0.167925485 -1.541358080 -0.435169212
O -0.356783014 -3.341583695 0.979204696
N -2.470122112 -0.461710075 -1.508150018
C -4.170550762 0.219746821 0.178500827
H 5.560669714 -0.918529521 -0.235865391
H 4.886361084 1.982133146 1.263188203
H 3.788969987 -0.896990611 2.579395790
H -0.386897576 1.963466847 1.311689876
H 1.702886351 1.503250922 -2.332355257
H -2.220621648 0.724127253 -2.981433946
H -5.643660551 1.533212473 -0.357641252
H -4.452840941 -1.015183532 1.780335662
H -1.943351960 2.176866192 1.826278797

