11

C 3.351757206 -2.723891789 -1.203282297
C 1.521283255 -1.251149343 -0.536295336
C -0.339886292 0.242146482 0.128057555
C -1.950708739 0.162682232 2.367675694
N -3.566231918 1.965113763 2.321385152
N -3.203269406 3.402882216 0.084218347
C -1.373403115 2.443047515 -1.177059834
H 5.279621727 -2.322363916 -0.640331089
H -1.860871254 -1.191322277 3.895030563
H 2.992355486 -4.387460726 -2.342992356
H -0.742172890 3.217010701 -2.959640396

