9

C 6.204072742 -0.865845752 1.115430517
C 4.172552378 0.068968201 0.737140039
C 1.841531740 1.139543007 0.305352208
C -0.192730994 2.075156011 -0.071447880
C -2.654714151 3.207746734 -0.521232234
H -3.044181508 4.672473755 0.876567000
H -4.142219553 1.785587891 -0.397083105
H -2.729511967 4.063348469 -2.395586420
H 8.006356874 -1.693872282 1.447673547

