17

C -3.405863939 -1.168330131 0.774987720
C -1.444100699 0.056251383 -0.898271298
O -1.134007413 2.629138181 -0.188764535
C 1.269547849 3.334719284 -1.124393942
C 2.967468549 1.177443543 -1.423778111
C 2.180633210 -1.693988482 1.869809507
C 1.277126256 -0.987239396 -0.822445924
H -5.232585971 -0.250080233 0.519909161
H -2.886353321 -1.010898767 2.762576883
H -3.618322899 -3.164800686 0.298058640
H -2.096282790 -0.016949029 -2.875334668
H 1.165241071 3.917797058 -3.150136789
H 2.009249337 4.961318431 -0.098436268
H 4.166925265 -2.227764208 1.851481734
H 1.929067445 -0.131544743 3.192152582
H 1.071358117 -3.289942923 2.551485423
H 1.578258932 -2.613898995 -2.052932586

