17

C -3.710740636 -1.058723483 0.632238885
C -1.580757434 0.017820817 -0.937134177
O -0.943783953 2.460020184 -0.047463722
C 1.572830997 2.937873661 -0.878705943
C 2.992163376 0.484663426 -1.239581782
C 2.230036018 -1.317806919 1.687441998
C 0.936417555 -1.391839983 -0.877537090
H -5.378642034 0.143947166 0.500179854
H -3.173358159 -1.196828731 2.618141166
H -4.217643398 -2.940874338 -0.042885407
H -2.187420180 0.131203250 -2.925740674
H 1.556085566 3.777105323 -2.782115423
H 2.449655112 4.291601836 0.402490027
H 4.005547624 -0.014647267 1.266180093
H 1.137954503 -0.449909114 3.187329283
H 3.211664854 -3.048250485 2.177629604
H 1.013108159 -3.189471552 -1.860578082

