14

C -2.800273045 0.034018264 -1.171216801
C -0.815462460 1.093050906 0.582058266
N -1.281634122 2.985518457 2.200549336
O 0.176102935 -0.364098351 2.385319386
C 3.541382473 -1.614133588 0.880064788
C 2.703540913 -0.582347243 -1.359086531
O 1.624690807 1.608019133 -1.399498665
H -4.456127288 -0.505153292 -0.065806613
H -3.330737858 1.446438120 -2.571523512
H -2.108079519 -1.643067751 -2.139914279
H -3.192125029 3.282195046 2.304299571
H 4.260984834 -0.439527847 2.380060316
H 4.031937139 -3.602678480 0.923116075
H 2.622459795 -1.728867742 -3.079649627

