15

C -2.327741604 2.295825226 -0.633472291
C -1.423347896 0.449151674 1.402912776
C -2.146502073 -2.256306026 0.743054920
H -1.593985120 -3.578024282 2.227176314
H -4.187473486 -2.413144281 0.486472499
H -1.248056315 -2.859151753 -1.016793049
C 1.356890499 0.817833423 1.875408426
C 3.159294931 -0.908744311 1.689684026
H 5.116577253 -0.436265102 2.058066065
H 2.764959053 -2.851478538 1.173952198
H 1.889354831 2.734286285 2.401484670
H -2.392497322 0.958418597 3.165271341
H -1.866752195 4.246746163 -0.143020728
H -1.430222304 1.871622359 -2.444607332
H -4.372030961 2.170336224 -0.886173498

