10

O -2.114732091 2.911185116 0.655042211
C -0.648094047 1.047383010 1.728968106
C -0.435943036 -1.483999223 0.466032843
O -0.510578091 -0.351908522 -2.775649933
C 1.900510092 0.128356264 0.952973975
C 1.629540846 -0.734993518 -1.602989344
H -2.015162800 2.716383378 -1.154424071
H -0.943475058 1.031704859 3.752876161
H -1.131202871 -3.396408014 0.328030056
H 2.994055691 -2.054007632 -2.408568479

