11

N -2.157339539 2.031115036 0.474619758
C -2.320444729 -0.510361056 0.338798528
O -4.275007338 -1.673305750 0.582346865
C 0.148963860 -1.935055155 -0.158877458
C 2.425816520 -0.407621956 -0.409856633
C 4.274548740 0.882583585 -0.609846065
H -3.744584723 3.020140016 0.792861581
H -0.499364720 2.928148412 0.263839612
H 0.364713363 -3.287243544 1.384182831
H -0.155641359 -3.047805493 -1.869335451
H 5.938339946 1.999405923 -0.788733550

