11

N -1.826060155 2.080581471 0.447280524
C -2.551985917 -0.191564618 0.403844148
O -4.273794966 -1.630594954 0.581390097
C 0.394611608 -2.386434722 -0.232604764
C 2.279110996 -0.655371193 -0.418193047
C 3.103516490 1.564568320 -0.390908689
H -3.164280595 3.396283292 0.760129124
H 0.899899259 2.394492457 0.025383160
H 0.301726523 -3.539267605 1.459554577
H -0.257936183 -3.301136186 -1.946756113
H 4.817728253 2.628663331 -0.584887413

