13

C -4.570762875 -1.106345621 -0.168155654
C -1.915196912 -0.091205534 0.204852510
H -0.526974375 -1.582891502 -0.149452316
C -1.235853749 2.413274162 -1.209567621
H 0.412189424 2.311001220 -2.448728088
H -2.811316775 3.236462313 -2.260673429
C -0.787179193 3.509461560 1.388283594
H -0.175668411 5.361153582 2.011064664
C -1.382577358 1.387980179 2.599408557
H -1.461940072 0.867646169 4.579120302
H -4.825161926 -1.836005633 -2.082992119
H -5.973000376 0.377179735 0.146306452
H -4.971896003 -2.642797197 1.150917552

