16

C -3.300987843 -0.953392549 0.586627152
C -1.970370886 1.280667243 1.733236430
N 0.184348812 1.056310397 3.353385829
C 0.566976381 2.359635079 0.886248539
C 1.636080810 1.368525751 -1.379988187
C 2.762222200 -1.124369243 -1.335717611
O 3.218298681 -2.226026737 -3.701190319
H -4.453999381 -0.362288031 -1.015464496
H -4.558331142 -1.774415981 2.001979277
H -2.019230152 -2.428703265 -0.055084194
H -3.257382961 2.773001255 2.306399245
H 0.880587014 -0.729077390 3.287848218
H 0.656451455 4.395289408 1.104498244
H 3.105597173 -0.866122124 -4.904879417
H 4.564641788 -0.574178014 -0.379320057
H 1.940317211 -2.591998733 -0.117543063

