14

C -2.871374161 2.091913119 0.651781205
C -1.242022590 -0.269641657 0.559707285
C 0.117765842 -0.932119959 -1.972977291
C 1.363388738 -0.076121192 1.690621500
C 2.594003713 -0.719976129 -0.472259831
C 5.143873950 -1.433691917 -0.623208224
H -1.849285797 3.719312150 -0.100883388
H -3.444761665 2.533950239 2.583809604
H -4.578616274 1.834069325 -0.477715961
H -2.290150624 -1.894245745 1.294211837
H -0.123195819 0.486817903 -3.449542672
H -0.293361273 -2.799441320 -2.744178132
H 2.048609025 0.239472236 3.597525934
H 5.352990381 -2.876967883 -2.120402971

