14

C -2.528188086 -1.742889340 -1.015019957
C -1.017073504 0.669248888 -1.102556455
C -0.335268671 2.048797657 1.279854850
C 1.688983447 0.744210884 -0.393399367
C 2.792402298 -1.522942132 1.690312511
O 3.660708738 -1.639523721 -0.625851951
H -1.985940340 -2.875736839 0.613387885
H -4.543875833 -1.317772999 -0.905509062
H -2.195609724 -2.857652992 -2.717556653
H -1.441523622 1.869817992 -2.711287184
H -0.816311211 1.184464499 3.059726414
H -0.261834027 4.096733146 1.262920939
H 2.915453780 2.086901018 -1.323091765
H 4.295412696 -0.753752867 2.976495770

