11

O 0.578508983 3.037603863 1.865576785
C 1.087561800 1.415906873 -0.048920795
C 1.669938353 -1.590746999 0.242582744
O 0.285933666 -2.031282939 -2.037168226
C -0.987100728 0.139543292 -1.366224386
N -2.885168670 -0.333256358 0.254920539
H -1.083616600 2.631920803 2.507076085
H 2.647883225 2.102597555 -1.204001073
H 3.645732904 -2.185489900 0.009760889
H -1.260431999 -1.473382515 1.551412500
H -3.954828263 -1.817178556 -0.339048085

