14

O 3.890209570 0.856369115 1.154744474
C 2.600016292 -0.170646804 -0.954572381
C 0.401606240 -1.725050911 0.024091249
C -1.541607146 -0.195905375 1.458704521
C -4.989556136 1.153873688 -0.928636305
O -2.707208286 1.625243703 -0.221214345
H 5.142194210 2.025861919 0.573029949
H 3.856591077 -1.386176700 -2.067309188
H 1.904281929 1.333445045 -2.197886201
H 1.126287145 -3.182237000 1.297168256
H -0.522433571 -2.688097674 -1.553629924
H -3.050370909 -1.382312531 2.206261657
H -0.661778650 0.905052013 2.959366423
H -5.422813059 2.770987090 -2.207293957

