14

O 3.757126949 0.698901582 1.395806423
C 2.656038131 -0.200326805 -0.873956683
C 0.252491032 -1.591566119 -0.192791768
C -1.697862363 -0.019002897 1.216077954
C -4.225881999 1.949213059 0.032814149
O -2.163879616 2.211953682 -1.224853823
H 4.967919849 1.982782154 0.999500922
H 3.942108743 -1.506949475 -1.842300481
H 2.220078559 1.355631658 -2.161013809
H 0.732915197 -3.140218013 1.095517131
H -0.582460759 -2.436332789 -1.879659667
H -3.258488186 -1.280769194 1.749677539
H -0.963727480 1.056566720 2.787616850
H -5.668745286 0.901387381 -1.150753127

