12

O -0.983611330 0.816152474 -2.763584334
C 0.040131736 1.305144809 -0.394030385
C -0.942624285 -0.431671329 1.641671414
C -2.459212572 -2.366303885 1.206786757
O 4.007622619 0.668591056 -2.405447105
C 2.897930936 1.131313382 -0.481359561
H 0.423525835 0.511420984 -3.888795639
H -0.387939155 3.264418846 0.181471250
H -0.334101538 0.013220429 3.552659830
H -3.116465970 -3.554110421 2.737196217
H -3.093384572 -2.794349756 -0.690796037
H 3.910783509 1.447721489 1.318343847

