12

O -0.436543686 2.327121604 -2.865305438
C 0.079544922 1.882829834 -0.192702989
C -1.578873528 0.138706691 1.152036213
C -0.677582146 -2.418041298 0.696683271
O 2.163548631 -2.033230339 0.173432922
C 2.424336732 0.331214584 -0.133518675
H -2.056334433 1.539059285 -3.138721955
H 0.322200515 3.731024389 0.691850712
H -2.603974362 0.643033700 2.837625051
H -0.784589947 -3.736568316 2.273126724
H -1.211019856 -3.389503333 -1.052945343
H 4.348122637 0.986858994 -0.436590494

