12

N 0.830493965 -2.641014902 -1.245224920
C -0.032408520 -0.074289083 -2.005218192
C -1.748263249 0.381509173 0.330113800
N -0.536501845 2.857213460 0.874617615
C 1.593090694 1.220237355 0.039978271
C 0.542803269 -1.266888116 1.188719935
H -0.582934740 -3.927239868 -1.474082413
H -0.331803631 0.521493357 -3.949947894
H -3.765851399 0.021074585 0.540384684
H -0.448036206 3.170151653 2.771964324
H 3.548101451 1.840167622 -0.102779502
H 0.931310173 -2.102415253 3.031474328

