12

O -1.949202628 3.410829553 1.752284057
C -1.011704338 1.818401020 0.200996694
C -2.098772920 -0.351643506 -1.206664038
C -0.004371617 -1.541565686 0.381148103
C 2.553653714 -0.929315114 -0.563115444
C 1.478699241 1.210540244 0.942255486
H -4.036964831 -0.808885230 -0.707574291
H -1.770077189 -0.443175037 -3.233150095
H -0.403937992 -2.787041958 1.948922854
H 2.779283007 -0.732574782 -2.597264398
H 4.120183986 -1.889960715 0.340382836
H 0.278512995 3.104314408 2.637905641

