11

C -2.022125420 -1.601267444 1.501651949
C 0.221291351 0.143664822 1.214103682
C 2.390142175 -0.458843077 -0.522258242
O 0.632486024 2.956381147 -5.103859112
C 0.835955198 1.253104095 -1.311892813
N 0.435969058 3.359389186 -2.878868701
H -3.718009845 -0.537461353 2.002393977
H -2.389626885 -2.617394327 -0.254869573
H -1.682819520 -2.988599126 2.992244445
H 0.661678910 1.228267670 2.913756296
H 4.219315428 -1.333179936 -0.681449376

