11

C -1.930610066 -1.341471468 1.155402250
C 0.330591353 0.388085779 1.362313446
C 2.427708268 0.332940433 -0.494097430
O 0.805752858 0.447437446 -3.872205884
C 0.919162900 2.491205503 -0.526126568
N -0.112535799 2.446220119 -2.877251946
H -3.533107741 -0.500654515 2.138918772
H -2.462680087 -1.662308338 -0.806350484
H -1.516333628 -3.162218677 2.031085198
H 0.923324040 0.763093519 3.297012237
H 4.255278201 -0.458196829 -0.926305404

