12

O -4.762958491 1.359752244 -1.346502921
C -4.713620671 -0.075488795 0.317896569
C -1.077959969 -0.343614589 1.644371738
C 0.477449907 -0.360225112 -0.755251798
C 3.128092642 0.295123839 -0.329815186
C 5.289684651 0.834868794 0.070712134
H -4.041409316 -1.346236488 1.820113716
H -0.606049284 -1.897016329 2.925771685
H -0.975560869 1.446630626 2.664444936
H 0.394515459 -2.219133715 -1.657258196
H -0.323160175 0.990514631 -2.105732516
H 7.210978026 1.314824875 0.418975809

