15

N 6.758325767 0.413528995 0.274238321
C 0.250777447 0.317303366 1.348638519
C 2.576667082 1.077539581 1.019983398
N 4.697821465 1.962743271 0.756732682
C -1.669941490 0.176687692 -0.688190085
C -4.398666537 0.663479309 -0.068031822
C -3.546391986 -1.957609717 -0.710264638
H 8.076134501 1.437553213 -0.643618759
H 6.287436423 -1.150438034 -0.726029546
H -0.307935974 -0.246671393 3.242778704
H -1.023228380 0.837703213 -2.514112574
H -4.859245763 1.071416566 1.883253529
H -5.526022833 1.685670512 -1.433301934
H -4.090015547 -2.741266366 -2.518911704
H -3.429239587 -3.326789823 0.805559747

