11

C -2.231227301 -0.775961685 0.098995231
C 0.533443040 0.601293600 1.836537572
C 2.563400487 -0.213485818 -0.060412182
O 1.313860226 0.934503659 -2.199946778
C -0.701404695 1.545598890 -0.536990660
H -4.088872452 -0.372424012 0.862039182
H -2.101760709 -2.270447981 -1.300118950
H -1.185248830 -1.491682642 1.981331902
H 2.973731951 -2.220028897 -0.318963131
H 4.308038579 0.800524987 0.385773661
H -1.665402897 3.324384788 -0.862819941

