12

N 1.996207864 3.043478624 -1.949621032
C 2.803985942 0.932833198 -2.044142903
C 2.844133645 -1.530741353 -1.455942138
N -0.524841384 -1.219957014 0.838807456
C -2.683262300 -0.496210824 -0.809494383
C -1.363797637 1.103636434 1.007693357
H 2.179938150 -2.898808222 -2.822315397
H 4.164392673 -2.180083507 -0.038089509
H -4.454185463 -1.447524523 -0.399193438
H -2.307765253 -0.171512601 -2.804207682
H 0.223457204 2.779206927 -0.586493850
H -1.649714693 2.247021991 2.679197461

