12

O -3.044109699 -1.121760911 1.983915404
C -2.537109181 -0.990474172 -0.291083869
C -1.229659567 1.392315286 -0.765814592
C 1.126891139 1.948970305 0.517484529
N 2.700812867 -0.079514951 1.309574271
C 2.205774164 -2.178919644 0.193974151
O 0.332388898 -2.625859866 -1.326530481
H -3.664469104 -1.894513330 -1.769770146
H -2.131804161 2.893240012 -1.854775867
H 2.183862733 3.299622006 -0.660167072
H 0.561014106 3.122123073 2.154937942
H 3.490339875 -3.760817187 0.520661802

