13

N -4.650876378 0.656026796 -1.045477788
C -2.289579530 0.400507043 -1.084165168
O -1.363457770 -1.888164493 -0.325730750
C 1.258601875 -2.264633312 -0.614682593
C 2.733440028 -1.023926218 1.527325522
C 2.441513700 1.767355983 1.265777298
N 0.901807013 2.966541468 0.180821997
H -5.191440529 2.406933545 -1.602265768
H -0.479127190 3.736908788 -0.880287077
H 1.902335681 -1.512877564 -2.432961007
H 1.567114235 -4.301783378 -0.622632444
H 1.950372973 -1.555555083 3.362772628
H 4.728436029 -1.536326344 1.521871603

