13

O -2.277255662 -0.910154274 -1.139401787
C -0.305184798 -2.275015317 0.019224127
C 1.248450040 -0.688544145 1.853346856
C 2.967995215 1.198483130 0.554710207
O 1.458788500 2.876249144 -0.914876567
H 2.535158775 3.971404733 -1.872169246
H 4.306918066 0.190880272 -0.668297373
H 4.056251357 2.262521052 1.959668290
H 2.430616216 -1.935329600 3.004128253
H -0.030151960 0.307412728 3.135745240
H 0.958939424 -3.107757734 -1.409059299
H -1.195269065 -3.840361051 1.027177737
H -1.571499892 0.671976934 -1.697844694

