12

C 2.812301927 -0.570878666 -0.849130368
C 1.195610463 -2.055842783 0.439473952
C -1.354277783 -1.162774525 1.154203804
C -2.046593745 1.296952242 0.021183244
C -0.349405844 2.698650472 -1.257360363
C 2.295053689 2.058107998 -1.330389472
H 4.682290996 -1.293394984 -1.292457509
H 1.759552756 -3.919814888 1.089742166
H -2.771111321 -2.594157499 0.653091994
H -3.951883654 1.985821986 0.354003926
H -0.935977381 4.514494711 -2.014846479
H -1.492448945 -1.035869268 3.224615412

