12

C 2.741198789 -0.618812570 -0.429653858
C 0.984852917 -2.381911700 -0.022951669
C -1.218405265 -1.023371488 1.177269083
C -2.319858177 1.042541758 -0.453415387
C -0.444895425 2.682793459 -0.845002091
C 1.625126956 1.659006722 0.690074993
H 4.544285998 -0.705070291 -1.380892686
H 1.066606287 -4.387510161 -0.393089528
H -2.511437176 -2.128777292 2.333471821
H -4.256926722 1.128856039 -1.090958809
H -0.335793448 4.350744009 -2.015317474
H -0.031641650 0.302810092 2.622595931

