15

C -1.802998996 -1.691982311 -2.182428223
C -0.823503395 0.588765301 -0.708884023
C -1.734725213 0.595988723 2.033385901
C 1.969925912 0.750421393 -0.841516586
C 3.990339600 2.263931355 -0.999923918
C 4.459202081 0.414084272 0.923573124
O 3.377185984 -1.770827788 0.489039332
H -3.864589608 -1.680915583 -2.205865362
H -1.133676673 -1.672172293 -4.131364872
H -1.164693107 -3.442629203 -1.301139213
H -1.455821593 2.328699526 -1.630721037
H -1.077667307 -1.089666293 3.021633258
H -1.053791506 2.261559862 3.038727097
H -3.795074691 0.608689213 2.079545372
H 5.155540155 0.840269858 2.820898008

