10

C 2.200891565 1.247084486 0.086228883
C 2.340827693 -1.359042954 0.100179900
N 0.062744161 -2.300900747 0.868559115
C -2.236282356 -1.082933880 -0.013628629
C -2.155553728 1.417980507 0.234562973
N 0.155937176 1.486320223 1.642421371
H 2.763757622 2.581687744 -1.369558751
H 3.839271549 -2.658597689 -0.411698455
H -3.688488789 -2.303591812 -0.774828983
H -3.288201465 2.968016248 -0.457823551

