14

C 4.346986477 0.560948174 0.391072075
N 2.198986967 0.900343968 -1.266180849
C -0.146526699 1.055672728 -0.424891483
N -2.107710209 1.829507583 -1.489653851
N -4.237103439 0.826966016 -1.861828948
C -3.959198236 -2.241164898 1.351747421
C -1.738237194 -2.134639619 1.926295197
H 3.739490060 0.912628889 2.323979708
H 5.115715859 -1.352817516 0.265000131
H 5.840178746 1.906293845 -0.072729700
H 2.516261231 0.809919780 -3.143702857
H -5.526731707 2.254744357 -2.056869528
H -5.908649892 -2.622315458 1.052455677
H -0.012623408 -2.602768962 2.852892999

