16

C 2.624524283 -0.591788032 1.266079843
C 0.438419976 -1.263552977 -0.498131240
C -2.132326651 -0.625488614 0.528216643
C -2.639848223 0.538293513 2.683902709
C -0.434106317 1.693225524 -4.157299851
C 0.892989986 -0.132215482 -3.077698995
H 2.437637399 -1.542758708 3.086745567
H 2.705921326 1.444089795 1.592454555
H 4.422309865 -1.164844569 0.433407685
H 0.466576574 -3.324033696 -0.757650201
H -3.699651968 -1.212714657 -0.665156818
H -4.572685331 0.890762414 3.258254937
H -1.170167039 1.178537883 3.958462452
H -2.058169036 2.541124187 -3.239781333
H 0.072677204 2.412617444 -6.005326504
H 2.519501714 -0.899121259 -4.074454031

