19

C -6.082729610 1.084253078 -0.593188413
C -3.785888505 -0.096861843 -1.860736762
C -1.414251605 0.086989838 -0.233389359
C 0.877969328 -1.020269352 -1.465912787
C 3.306952574 -0.542764908 -0.621668419
C 5.068369224 0.733806940 0.469065192
C 6.829131197 0.075103159 2.531822974
H -6.513333188 0.142440998 1.193405663
H -5.759202904 3.081806957 -0.184037215
H -7.754939698 0.952115453 -1.792129178
H -4.167763623 -2.086081273 -2.282807205
H -3.439559419 0.827440564 -3.677730956
H -1.756234114 -0.827426618 1.593175731
H -0.968308176 2.063733202 0.217656293
H 3.148789376 -2.763627136 -0.502578729
H 0.621611255 -2.314695937 -3.037775110
H 6.446884767 1.361121747 4.105470295
H 8.782781843 0.447205161 1.982903380
H 6.682424955 -1.867406248 3.243513467

