11

N 3.311431320 -0.658622467 0.855007057
C 4.379979489 -1.365261041 2.645356454
C 1.920904659 0.194957866 -1.291042596
O -0.286179179 -1.197285232 -1.646290528
C -2.106273715 -0.930766915 0.271383474
C -3.093091437 1.667440154 0.430952893
N -3.811074718 3.708367329 0.539961707
H 3.062791720 -0.079569413 -2.978539963
H 1.526517494 2.209970282 -1.032174891
H -3.647663732 -2.209162802 -0.201273293
H -1.353243593 -1.469886295 2.122216201

