11

N 4.505855601 -1.756491343 0.609769248
C 3.066359806 -0.823109784 2.037625540
C 1.934525049 0.162161726 -1.075510657
O -0.224973010 -1.114624851 -1.534676103
C -2.185219329 -0.826669896 0.257795569
C -3.048803325 1.805068908 0.439277930
N -3.677936842 3.873734805 0.566780832
H 3.180379531 -0.011849547 -2.688791827
H 1.718445128 2.118510599 -0.476403735
H -3.734618610 -2.016484947 -0.384003876
H -1.547933723 -1.453554413 2.122315317

