11

O 4.042270596 1.532577827 0.871727581
C 2.218972370 0.687686284 -0.717468652
C -0.393041888 -2.499873904 -0.360252853
C -2.362008594 -1.798343448 0.907802434
C -2.120562917 0.677875960 -0.302744878
N 0.070881208 2.040130391 -0.283843969
H 5.606961560 0.828013208 0.288462290
H 0.405748028 -4.162463395 -1.222033539
H -3.935547595 -2.618101009 1.932623493
H -3.705051993 1.441354738 -1.372005436
H 0.127717102 3.868340884 0.257650362

