13

C 4.265732109 0.009101412 0.876009606
C 1.453586066 0.143704885 0.930817786
N 0.191806106 1.127828330 -0.831729487
C -2.514554128 1.066773414 -0.633024841
C -3.693285141 -1.159745502 -1.985968402
O -2.581362787 -3.012052555 -2.653743039
H 5.065354771 0.924962205 2.545287632
H 4.992237714 0.908432242 -0.824626044
H 4.873967391 -1.964215859 0.917381437
H -3.210350909 0.947669154 1.330674404
H -3.321630058 2.790946472 -1.439201451
H -5.764365031 -0.979827663 -2.276141763
H 0.519398879 -0.670167541 2.602357777

