10

N -3.620252291 -0.179073150 -0.322716977
C -1.045395434 -0.321412140 -0.119916918
N 0.210767202 -2.300444700 -0.888055136
O 2.716057514 -1.850761635 -0.540926185
C 2.907114438 0.591177026 0.424873474
C 0.508091173 1.679965939 0.968318230
H -4.435727789 1.116230249 0.798960521
H -4.561904198 -1.818049739 -0.513657494
H 4.674279200 0.936246365 1.399316589
H 2.726650487 2.035731562 -1.195445433

