12

C -3.632101535 0.473177444 0.818020733
C -1.293196638 -0.446700264 -0.388646706
C -0.654625545 -2.088745844 -2.427044520
C 0.859811856 0.124329012 -3.133432139
C 1.252321541 0.145207387 -0.466629165
C 3.434074583 0.241730402 1.266049626
H -3.317078483 0.930175034 2.802124297
H -5.122711001 -0.936377285 0.649529142
H -4.257923950 2.193455682 -0.140352038
H 4.045492787 -1.687347871 1.684423198
H 2.928818547 1.145902974 3.047173568
H 5.004120539 1.243297059 0.390094388

