13

O -3.624407609 -2.889875430 1.699732153
C -3.302965347 -1.381821184 0.036529426
C 0.016423100 3.173834654 -0.135819265
C 0.814101876 0.722597557 -0.740021701
C 2.498537962 0.233630148 1.551760172
O 3.470132693 0.093584548 -0.878564100
C -0.943043351 -1.365168482 -1.581681113
H 1.673836026 4.426737134 -0.105836530
H -4.712094982 0.103445063 -0.365944992
H 3.225887972 1.732329947 2.749491701
H 2.020951390 -1.526332849 2.501424934
H -1.447955645 -1.031494476 -3.556347819
H -0.002758490 -3.190356416 -1.428624541

