10

O 3.959120776 0.064859539 -1.138777724
C 1.490079795 -0.052498028 -0.599228148
N 0.370779591 -2.244196491 -0.033798734
N -2.287275727 -1.653423602 0.362315300
C -2.497178871 0.837020361 -0.013753200
C -0.187702698 1.957377186 -0.502029196
H 4.665772768 -1.598937771 -0.941223922
H -1.386479056 -2.962975706 -1.356253284
H -4.336101428 1.715375684 0.121940984
H 0.235085766 3.930433316 -0.771597683

