13

O 4.138792497 1.961905801 0.327450722
C 3.469308413 0.214914149 -0.936486965
N 0.932692451 -0.361151966 -1.446195536
C -1.123249750 1.432778934 -0.766857797
C -2.724783003 -0.417146441 0.728059168
C -0.604958364 -2.425973102 0.862414557
H 4.774476050 -1.184379953 -1.756003265
H -0.271789274 2.899110578 0.394455989
H -1.952371585 2.287932804 -2.450777780
H -3.378240074 0.321611431 2.539267342
H -4.365078999 -1.089705071 -0.329518612
H 0.693764759 -1.359499814 -3.054123490
H 0.615476259 -1.887368275 2.466067025

