16

C -3.836299179 -1.506600745 -0.491943350
C -1.179313654 -0.564140280 -1.009943189
O -1.397323420 1.782438152 -2.237222117
C 0.341151312 -0.358296268 1.440623810
N 3.061589155 -0.083485606 1.025792568
C 4.563216556 2.415847005 0.105997252
O 3.391902718 4.035124559 -0.900426776
H -3.815533055 -3.415728857 0.288907642
H -4.914987109 -1.525247428 -2.245805480
H -4.797719625 -0.250622149 0.833719879
H -0.211906385 -1.931985616 -2.248419387
H 0.184410662 2.693130091 -2.132556839
H -0.305807387 1.310744276 2.472489297
H 0.016740555 -2.011413753 2.633743690
H 3.975744754 -1.649617844 0.394670151
H 4.927015934 1.070208275 2.108855251

