15

C -2.022940043 -2.429742029 1.346472647
N -0.120459382 -1.423795818 -0.423940516
C 2.570708058 -2.344815941 0.285547633
C 3.832964380 -0.119524610 0.300446404
C 2.256553958 2.085226512 -0.225031308
C -0.110322873 1.341140634 -0.657286071
N -2.326327995 2.512703500 -1.513815851
H -3.915164424 -1.879203997 0.745442097
H -1.835029268 -4.474515363 1.390816488
H -1.606163290 -1.677117366 3.214652946
H -0.442099254 -2.181156532 -2.166038949
H 5.831359016 0.018306079 0.707063083
H 2.876095698 4.034062458 -0.271650417
H -3.570466133 2.936132864 -0.126949439
H -1.969325509 4.075711927 -2.542164028

