13

C 3.746795533 -1.915161498 -0.318126965
N 1.618929580 -0.826048554 -0.189210302
C 1.289884099 1.945412442 -0.057627463
C -1.272788144 2.010130440 0.042902112
H -2.409645509 3.702587526 0.155270519
C -2.331710181 -0.529139491 -0.026904503
C -5.052948398 -1.206470568 0.047044902
H -6.034910903 -0.321467245 -1.537360346
H -5.906416254 -0.474345635 1.777229821
H -5.313937830 -3.244240728 -0.037412855
N -0.610117468 -2.269382704 -0.167935690
H 5.408347546 -0.725973629 -0.329264482
H 3.807716543 -3.958956729 -0.410451727

