13

C 0.241786036 -0.906413013 1.725154128
H 2.151055935 -1.488355382 2.179935674
C -1.819371130 -0.506030257 3.108992916
H -2.227303379 -0.660833220 5.110350681
C -3.438331267 0.266402666 0.874850750
C -5.738396094 -1.338230059 0.274860400
H -5.239924344 -3.341729337 0.211210380
H -7.208467015 -1.095579058 1.703746687
H -6.545474424 -0.818608627 -1.553371598
H -3.958545128 2.268156763 0.905794997
C -1.016580191 -0.226803739 -0.745787142
H -1.215404399 -1.772020489 -2.101597607
H -0.258167505 1.424377552 -1.725949401

