19

C 2.664492104 -0.085789900 -2.359982619
C 3.118251308 -1.091327703 0.096150229
C 0.448307552 -1.001535457 2.102084381
C -0.723101736 1.656142067 2.364859624
C -2.993681677 0.703194511 0.744682919
C -2.404872571 0.802978192 -2.006604665
C -1.856036106 -1.863805110 1.056322057
H -0.064345590 0.128855984 -2.368540546
H 2.703245095 -1.350586789 -3.973868766
H 3.267913743 1.829054143 -2.772978540
H 3.615185047 -3.084796976 0.156649830
H 4.396878119 0.017367868 1.262292907
H 1.287050663 -1.950170942 3.717113000
H 0.348532450 3.241076722 1.588691279
H -1.272099339 2.084138144 4.302059316
H -4.898025116 1.173933887 1.382095477
H -3.709972708 -0.313445206 -3.133517139
H -2.094973172 2.660551779 -2.848167530
H -2.553449888 -3.723444490 0.553058359

