10

C -1.018332931 1.244067236 -2.266409353
H -2.156321430 1.319327260 -3.975202799
H 0.870746360 2.031447855 -2.429756939
C -2.277075836 1.169657304 0.185929624
C -5.099625918 1.210885780 0.439453259
H -5.699260792 0.061533262 2.043942837
H -5.988376227 0.462587381 -1.262944504
H -5.768842265 3.139099692 0.744627399
H -1.229236023 1.894332105 1.801828878
O -1.194038097 -1.041275793 -0.878130257

