15

C -2.616778050 -2.493453087 0.821297839
N -0.332248151 -1.445381801 -0.191188222
C 2.005637484 -2.137795689 -0.663643280
C 3.594086746 -0.003931802 -0.326016949
C 2.131250868 1.997063060 0.436836196
C -0.484841193 1.215307872 0.341367724
N -2.107081006 2.635342133 -1.312204637
H -3.486608478 -3.966977199 -0.319078669
H -2.364633348 -3.031219839 2.788309378
H -2.306986988 0.399855749 1.813198094
H 2.537839598 -4.097646621 -0.872895451
H 5.626081903 -0.038669560 -0.512378452
H 2.770278727 3.893208149 0.836134514
H -3.720393017 3.234245551 -0.505077892
H -1.209498098 4.033736763 -2.233660002

