15

C -2.595905439 -1.739297670 -0.808632933
C -0.433562265 -1.361098768 1.017247774
C 1.754514709 1.755270202 0.230219816
C 0.270049290 4.020638486 0.409412888
O 2.451262343 3.346169286 2.014030759
C 2.328103147 -0.603165789 -0.620594450
C 3.875768434 -2.128191647 -1.799557162
H -4.237989040 -2.521672178 0.170140887
H -2.054402472 -3.034772222 -2.313769480
H -3.178013764 0.037233349 -1.682436038
H -0.990996134 -0.234486439 2.659649322
H 0.330365814 -3.113125256 1.774724233
H 0.628126860 5.562419109 -0.890150086
H -1.523379188 4.022926245 1.401627063
H 3.409171375 -4.134999193 -1.598501452

