8

O -3.062448565 1.687456473 -2.699076095
C -1.634397934 1.162769215 -1.121987527
N -0.341169057 0.631094411 0.670874638
C 2.282347605 0.080298148 1.060541872
C 3.892743296 0.727923675 -1.103053945
N 5.132521533 1.231705498 -2.805921966
H 2.952259107 1.121698474 2.708911307
H 2.518764626 -1.928512659 1.470602218

