14

O 1.484865115 2.074504528 -0.716799764
C 2.473310950 -0.429002412 -0.441304529
C 0.207758210 -2.182705313 -0.141748281
C -1.667483410 -0.600700415 1.380349956
C -1.553534701 2.012788926 0.208037776
O -2.397942965 2.338555203 -2.089490018
H 0.078570409 2.278000933 -2.394665310
H 3.661482827 -0.432555230 1.246696790
H 3.647765305 -0.864145735 -2.076542900
H 0.723430246 -3.942494682 0.795821175
H -0.598726104 -2.642587117 -1.982176138
H -3.598278706 -1.306819428 1.249744748
H -1.124374723 -0.516885902 3.371617339
H -1.688966478 3.605352632 1.532346317

