16

N 5.107789686 1.694187451 0.544019610
C 2.898370713 0.950897203 -0.054394179
C 2.995352402 -1.736429500 -0.402075724
C -1.826600258 -2.588718659 0.411874880
C -2.821680865 -0.173646745 -0.765620498
C -1.439983118 2.193803108 0.073450045
O 1.062958397 2.495474130 -0.906180898
H 5.478024847 3.469166722 -0.102831847
H 0.086289260 -3.033466459 -0.381213393
H 3.644004958 -2.663522372 1.331828290
H -1.730131610 -2.483149601 2.468321884
H -2.957147639 -4.231079370 -0.113238625
H -2.752632710 -0.300728767 -2.826081810
H -4.807921349 0.082095089 -0.248886757
H -1.357650377 2.291945694 2.141545434
H -2.432197010 3.866963142 -0.599373165

