15

C -2.649462526 -2.657595794 0.063821286
C -0.649487909 -1.085727178 -1.154320363
C -1.291875889 1.443745789 -2.020963069
N -0.131984255 1.504959858 0.504733924
C 2.270636311 0.189481024 0.815202396
O 2.661032431 -1.003926774 2.734398893
N 4.140253557 1.074884327 -0.802767223
H -4.329383433 -1.601089715 0.697147009
H -3.273383423 -4.060132250 -1.316500929
H -1.859093154 -3.686082015 1.667624723
H -0.185152512 2.375012518 -3.477542215
H -3.245654753 2.096521840 -1.928465775
H -1.244508147 1.592010451 2.055321672
H 4.022772157 2.908106468 -1.288872963
H 5.869543975 0.538933034 -0.223622234

