12

N 5.316771607 -2.512215875 0.515519252
C 3.557668171 -1.423962020 -0.130364212
C 1.289602435 -0.059628626 -0.929535909
C -1.035152362 -1.755661394 -1.155706628
N -2.964468004 -0.872883262 -0.086178050
C -2.290106178 1.551999563 1.041562313
N 0.464087086 1.837973348 0.896281284
H 1.697652963 0.792630222 -2.776154641
H -1.041108344 -3.524874846 -2.193522540
H -2.953027394 1.654254817 2.989881267
H -3.253270123 3.028828466 -0.038235566
H 1.256165017 1.483722038 2.596350734

