15

C -1.389582270 2.392116845 -0.438209215
C 0.415475904 0.284022095 0.219951252
C 2.672093149 0.005904204 -1.489223522
C 3.798385623 1.398984829 0.751746828
N 2.338503576 1.273672233 2.526497745
C -0.828079216 -2.391986642 1.292433094
N -2.395895976 -2.933729454 -0.651537165
H -0.342822378 4.154768468 -0.647621577
H -2.369310023 1.986310121 -2.199023080
H -2.774444722 2.641501148 1.066295295
H 2.662755257 0.969773810 -3.302580636
H 3.470052077 -1.880205174 -1.612906664
H -1.589950725 -1.888683865 3.154479739
H 0.805469985 -3.643561495 1.500877898
H -4.141933089 -2.218485709 -0.285680367

