9

O 1.247545674 1.917136602 1.629299755
C -0.048690268 0.029219361 0.421010590
C 2.634016661 0.168594184 0.017631447
O -1.627662609 -1.700820144 1.524070677
C -2.559407382 -0.205387227 -0.590007626
H 3.857191746 -1.124046780 1.036376697
H 3.399977045 0.993829022 -1.696155393
H -2.906179023 -1.264184807 -2.311467548
H -3.968727520 1.193275385 -0.077650264

