13

N 5.157266779 -0.746066009 2.677159543
C 4.064452466 -0.610872357 0.793547608
C 2.739511888 -0.607889349 -1.513021543
C 0.140862094 0.025643035 -1.607788549
C -1.639684971 -1.042943817 0.615598108
C -2.555969422 1.617026910 1.040454291
N -0.300178856 2.437855322 -0.288619855
H 3.848767725 -0.913383381 -3.207175205
H -0.771886377 -0.172890590 -3.450089105
H -2.946149887 -2.450679684 -0.114314220
H -0.494286667 -1.776542018 2.148517295
H -4.280964473 2.092453600 -0.012618703
H -2.728521675 2.288165864 2.980068770

