13

C 1.859539677 -1.325879829 2.042717520
C -0.099765955 1.512468533 -1.704117735
C 0.958410395 -0.949408893 -0.628363378
C -1.737255764 -0.809887597 -1.443974730
N -3.313876852 0.517055467 0.485141470
C -1.975672097 2.507113444 0.170339629
H 3.738434931 -0.513642641 2.295200445
H 1.970416561 -3.339395128 2.476967173
H 0.644842641 2.406118657 -3.380930231
H 2.118906912 -1.896833422 -2.038145025
H -2.587698188 -1.957893497 -2.901928840
H 0.580712441 -0.457851973 3.402644394
H -2.172244772 4.284235835 1.184727303

