15

O 1.884096139 -4.745922232 0.104538496
C 1.132367679 -2.601831450 0.188656310
C -1.631008766 -1.938218557 -0.092003112
C -2.183118937 0.827554798 0.481569944
C -0.324147727 2.532062062 -0.922628072
C 2.410999366 2.059140261 -0.678043900
C 2.972479800 -0.406491503 0.486403202
H -2.123757027 -2.376392339 -2.055280363
H -2.729112895 -3.234269475 1.077349229
H -4.129927376 1.291478990 -0.020240932
H -2.013780031 1.177749244 2.514177335
H -0.490642557 2.260244159 -2.995428502
H -0.728532450 4.544499216 -0.689793159
H 2.842513829 0.211162230 2.489392311
H 4.907291558 -1.066916977 0.233067368

