15

O 1.294061169 -4.923235688 1.266431993
C 0.864129219 -2.775224367 0.613883068
C -1.727179763 -1.938936086 -0.266543470
C -2.244966933 0.827344094 0.351659305
C -0.176078879 2.531953479 -0.705531403
C 2.411210127 1.550584007 -0.103979497
C 2.878507575 -0.837049633 0.541855439
H -1.774327542 -2.226538286 -2.319118860
H -3.128108025 -3.207198600 0.553074894
H -4.088784013 1.396237810 -0.378347869
H -2.318983744 1.059291970 2.405521560
H -0.356419392 2.693453102 -2.765625522
H -0.370333465 4.453646985 0.025016138
H 3.970818275 2.880469564 -0.218841642
H 4.766455391 -1.484798370 1.000545865

