9

C -3.724471140 -0.638478780 -2.004590179
C -4.157567625 -0.388873984 0.776887764
C -4.449097583 1.774720492 1.998654190
H -4.757652348 1.830564261 4.021537088
H -4.390918660 3.574542216 1.016860966
H -4.230623870 -2.145028048 1.842450676
H -3.662835530 1.204630371 -2.925841057
H -1.945197089 -1.615401386 -2.387750897
H -5.222833453 -1.753500228 -2.887066107

