21

C -5.343096361 -0.299075823 -1.673965114
C -4.402561698 -0.205145909 1.025072960
C -3.014189627 1.878463584 1.932088890
O 0.063065528 0.123334676 2.039149679
C 1.907653881 0.745803829 0.230378307
C 3.829544410 -1.366739374 -0.063825916
C 5.913120039 -0.694374044 -1.930949045
H -4.092074328 0.750680173 -2.938521724
H -5.429428575 -2.237205657 -2.376089907
H -7.237809643 0.505792038 -1.873250453
H -5.540829158 -1.199327384 2.414137596
H -1.875930784 -1.012517752 1.282382945
H -3.013544342 2.370397542 3.917327839
H -2.453827231 3.391100605 0.662008932
H 2.866596159 2.484098527 0.825105864
H 1.017792148 1.136227482 -1.616030551
H 2.841420169 -3.076224044 -0.676977395
H 4.629826152 -1.782569526 1.794521042
H 6.959813299 0.974597563 -1.311256694
H 5.142775131 -0.288815461 -3.803963452
H 7.264295836 -2.237882973 -2.134720008

