11

N 4.568437340 1.563272365 -0.503043734
C 2.230482805 0.472467852 -0.080270785
O 1.216139351 0.489364176 1.975179672
N 1.164412483 -0.598675743 -2.185235600
C -1.422271130 -1.477154635 -2.080437342
H -1.775311900 -2.734862273 -3.672205983
H -2.790127900 0.072707553 -2.120829009
H -1.697108967 -2.523642898 -0.332781583
H 1.799627989 0.010986339 -3.867493380
H 5.478210683 2.015256058 1.102626583
H 5.669524628 0.812521498 -1.857042650

