15

N 4.331527743 2.497164528 -0.847996684
C 2.139786591 1.335930999 -0.316871695
O 0.825790531 2.312971184 1.489780651
N 1.314960047 -0.645558922 -1.538737068
C -1.153401823 -1.728274879 -0.883704325
C -3.979732794 -1.042128721 2.737674790
O -3.725973548 1.003307624 3.779538345
H 4.900621770 3.889977927 0.304388051
H 5.575015967 1.735383046 -2.054582260
H 2.406745574 -1.300934386 -2.963820451
H -0.893805006 -3.755966827 -0.591937887
H -2.422375744 -1.433061580 -2.488001340
H -3.133125550 -2.777179874 3.517689352
H -5.422406182 -1.358546618 1.270925838
H -0.744554550 1.268855378 1.658014880

