10

O 2.953218955 2.668118016 0.516446068
C 2.944255172 0.441997284 0.132684172
C 0.714314189 -0.931899125 -1.041774360
O -1.039041192 0.285774721 -2.053596636
C -3.573969931 0.817985849 0.470674520
O -5.262672697 2.071552605 0.118390397
H 4.563887749 -0.788295341 0.645403209
H 1.045528924 -2.919027649 -1.554399609
H -0.246074316 -1.701242611 1.654810906
H -1.713390904 -0.906987414 1.856605065

