11

C 3.705193855 -0.034016431 0.053951473
N 0.978916740 0.074145030 0.005712604
C -0.184038065 -1.540112014 -1.297542403
C -2.998905711 -1.598709681 -1.477624346
H -3.598286435 -1.410008131 -3.445268281
H -3.725171472 -3.408160542 -0.795408554
H -3.816383771 -0.073436363 -0.365498487
H 0.847569171 -2.994901684 -2.371781747
H 4.493788963 -1.578074911 -1.089274251
H 4.340231821 -0.256757901 2.004618166
H 4.466277707 1.758174673 -0.629246995

