12

C 3.509102550 -0.316750753 0.885450640
C 1.017896990 -0.324018866 0.566892288
N -0.247061773 -2.591456740 1.317145061
N -2.564169586 -2.549444236 1.091029561
C -2.137228657 1.797035039 -2.158612118
O -3.210556076 3.690789323 -2.818965366
N -0.355674255 1.775740377 -0.279609188
H -2.458968117 -0.061938873 -3.025904814
H 4.405850823 -1.945437197 1.729268364
H 4.654142014 1.290448655 0.353361494
H -3.215853243 -4.267444182 1.708985783
H 0.086215958 3.485536040 0.433546164

