18

C -2.879894974 1.440313385 0.216625013
C -0.941297848 -0.242034138 1.544595616
C -0.907796254 -2.911446616 0.421767879
C 1.178488410 -2.541921255 -1.518456300
C 1.868142372 0.370660368 1.197415076
C 2.523643880 2.753809952 -0.161565159
H -2.727658959 3.409643486 0.814986079
H -2.684890828 1.396102203 -1.839343210
H -4.790145678 0.800497794 0.668944661
H -1.374869864 -0.240055292 3.567813525
H -0.294662349 -4.280342716 1.835973243
H -2.710352847 -3.549877057 -0.353963126
H 0.661386191 -1.384575592 -3.135599617
H 2.230910658 -4.207695407 -2.127607665
H 2.788260075 -1.581845652 -0.120905660
H 1.327073021 3.309392079 -1.762369487
H 2.292515465 4.223814280 1.284436321
H 4.502913298 2.803710514 -0.734059729

