9

C -1.702083785 -0.435540354 1.681223230
H -2.993608809 0.246238797 0.258316963
C -0.758590623 -2.986464453 2.187697630
H -0.500123181 -3.579921756 4.141565991
H -1.175826825 -4.483519530 0.853333535
N 0.963207314 -1.043215786 1.177197803
C 0.291876817 0.869879164 3.086843682
H 0.584256774 0.396531607 5.068599487
H 0.801298584 2.780007944 2.549760141

