17

C 4.893170259 1.010253085 -0.684654446
C 2.345621192 0.151380291 0.181791596
C 1.826221255 -2.179746456 0.970819358
C -5.130354452 -1.411545253 -0.459118902
C -3.390114602 0.280499192 -1.052489428
C -1.840852554 1.712324702 0.840683973
O 0.684032102 2.102792008 0.049208790
H 5.534213397 2.600365287 0.462737973
H 6.266542704 -0.514095154 -0.551148772
H 4.794408787 1.657439780 -2.641437691
H 3.326026771 -3.563311536 1.022453119
H -0.037363929 -2.787414310 1.534699215
H -5.486786619 -1.945420227 1.489560593
H -6.269414407 -2.325245409 -1.892264764
H -3.049185654 0.776911650 -3.015838054
H -1.886335994 0.790307692 2.693823998
H -2.609041511 3.616020835 1.056610184

