17

C 3.719542678 0.854980450 -1.165841116
C 1.752023804 0.232579857 0.728993921
C 0.388864365 -2.108351771 0.939053232
C -3.084899399 -1.985783795 -0.540637265
C -1.512423690 0.234966827 -0.668703986
C -1.728838225 2.307950182 1.312389055
O 0.817373710 2.272610602 2.178981967
H 5.354605908 1.727056818 -0.255343177
H 4.376613774 -0.842167597 -2.136659888
H 3.041805518 2.203024178 -2.604319804
H 1.098871867 -3.616471194 -0.240408388
H -0.249374911 -2.702487863 2.793970866
H -4.359091950 -2.226781418 1.034160048
H -3.353518639 -3.133633773 -2.204623283
H -0.942175532 0.847332332 -2.555349384
H -3.038830257 1.776230610 2.821795155
H -2.291500002 4.152686784 0.562742412

