13

C -2.320056750 -1.366131865 0.663789942
C -0.920267143 0.145020342 -1.274173219
C 0.437435523 2.380566933 0.042141630
O 1.760030214 1.292026066 2.057422254
C 2.764732380 -1.894811170 -0.344482219
N 1.315525264 -1.460779497 -1.981225303
H -1.996573999 -3.386116301 0.534304377
H -4.345585170 -0.983380575 0.655939679
H 0.368274117 0.119394352 2.701158460
H -1.937700243 0.759706865 -2.965296138
H -1.033761996 3.660567897 0.717279906
H 1.758197199 3.392782348 -1.174869547
H 4.420034370 -2.708376987 0.493053356

