13

C 3.677342013 -0.344949530 -0.240772689
C 1.291121076 0.638523226 0.949549148
C -0.742918689 1.779034321 -0.688236951
C -2.164671090 -0.209660503 -0.030077051
N -4.478735462 -1.266468597 -0.469319417
O -0.496661505 -1.449109418 1.498753014
H 4.727135652 -1.531659439 1.080665301
H 4.883979821 1.237927686 -0.786631399
H 3.228343407 -1.441393760 -1.927389273
H 1.662973144 1.626491395 2.725515952
H -5.815130672 -0.065741588 -1.085891339
H -0.929652940 3.436595138 -1.844733049
H -5.073622190 -2.436863367 0.907965026

