15

O -5.585462259 -0.315411958 -0.465633582
C -3.688252800 -2.164414409 -0.433391188
C -0.994259936 -1.379203800 -0.327828006
C 3.530402144 0.844446512 1.221116399
O 4.389624179 -1.405747025 0.127942811
C 1.623537035 2.237841248 -0.388989389
O -0.863835083 1.060334739 -0.421710715
H -4.789986053 1.298921072 -0.708437084
H -3.973175822 -3.442259951 1.175271454
H -3.793132071 -3.382781104 -2.120012308
H 5.162855965 2.088325059 1.455465209
H 2.717779943 0.533591364 3.108160340
H 2.871223455 -2.407782145 -0.132000715
H 2.252371635 2.348100947 -2.348556787
H 1.281158516 4.135871566 0.334942863

