15

O -4.247271034 0.579943058 0.568361607
C -2.616502452 -1.518396094 0.257881211
C -0.085057348 -1.142908930 -1.021669639
C 2.389046418 0.000237860 1.198913761
O 4.592139476 -1.031579552 0.269902496
C 0.698484425 2.105095017 -1.009619479
O -0.319015495 0.711932510 -2.946198982
H -4.660095350 1.202659141 -1.085914809
H -2.360709521 -2.359384804 2.121835534
H -3.515786549 -2.959244045 -0.938518609
H 2.961046957 1.739263825 2.178669180
H 1.412299632 -1.098684369 2.647651413
H 4.045870128 -2.452687990 -0.737662964
H 2.427235761 3.056077277 -1.568618155
H -0.636709732 3.186256882 0.113271790

