13

C -1.787337097 -1.739687388 0.112062536
C -0.056495233 0.435433887 -0.194658836
O 2.285951237 0.055767991 -1.186670055
C 3.634568591 -2.125124980 -0.946428738
O 3.201825542 -3.811377622 0.462535678
C -0.627475755 2.904776998 0.330839493
C -3.034292042 3.449253052 1.315777448
H -1.681917497 -2.975987585 -1.535107395
H -3.678408159 -0.981542627 0.384369708
H -1.254660927 -2.857788240 1.757678507
H 0.886531639 4.262887259 -0.012486498
H 5.247949822 -2.012060777 -2.241290130
H -3.063663262 5.452927943 1.890262486

