13

C -1.876233367 -2.195556660 0.104634608
C -0.496175827 0.196047653 -0.461623016
O 1.689233534 -0.032653126 -1.861236670
C 3.670803296 -1.350976696 -0.928037527
O 3.824883136 -2.173203392 1.158035451
C -1.248098286 2.591916246 0.220260354
C -1.651199356 4.996121763 -0.070500277
H -2.393055207 -3.067730765 -1.696774996
H -3.602114359 -1.784629800 1.143029457
H -0.730073314 -3.538907253 1.165076608
H -0.953562870 1.614334088 2.195757897
H 5.121861097 -1.494936542 -2.399151747
H -1.316446260 6.271011018 1.508365805

