10

C 3.869878365 -1.145386966 1.568254874
C 1.752925354 -0.615983121 0.980616718
C -0.816776878 -0.013337309 0.261731660
C -2.008861187 1.702101340 -2.556619053
N -1.549413510 -0.930229137 -2.264322925
H 5.754682490 -1.615020266 2.093212212
H -2.232477997 -0.454611792 1.678137270
H -0.704948082 2.211599094 -0.011546038
H -3.890598060 2.004909014 -1.692449564
H 0.067553816 -1.380090327 -3.194217523

