15

C 2.991316306 -1.474848810 2.152637730
C 1.813916284 0.590060765 1.377436244
O 0.603739340 2.496173650 -2.516629406
C -0.169263582 0.769929528 -0.636350722
C -2.842432835 1.384257853 0.317292027
O -3.723026236 -1.096077359 -0.312826226
C -1.411763837 -1.683478675 -1.592132867
H 4.426195727 -1.381865611 3.608809356
H 2.571242793 -3.328994907 1.392743272
H 2.317005050 2.116754854 -2.978896724
H 2.304252800 2.408157180 2.203677645
H -3.042010288 1.793077027 2.331151804
H -3.758058641 2.853730525 -0.811617831
H -1.638150193 -1.686377515 -3.647200314
H -0.627254449 -3.486624276 -0.968239145

