15

C 3.572932698 -0.933896566 1.238396772
C 1.495930501 0.664432127 1.584184792
O 1.286065908 1.959452030 -1.816919456
C -0.461269505 0.601785609 -0.399755915
C -3.153554283 1.586010929 -0.062825230
O -4.171871605 -0.868736806 -0.597874348
C -1.743422470 -1.828231904 -1.326272930
H 5.301465921 -0.591365338 2.271428144
H 3.222515435 -2.861742189 0.631176878
H 3.263767268 0.439298585 -0.886982886
H 1.563843138 2.337653653 2.765558342
H -3.706082442 2.276870366 1.803431176
H -3.647405085 2.972374637 -1.513602104
H -1.583106949 -2.087764415 -3.371443844
H -1.282170539 -3.588045915 -0.345652886

