14

C 2.342061855 -0.455212044 -1.011930047
C 0.048215039 -2.010023935 -0.997566409
C -2.158347386 -0.412166880 -0.393542892
C -1.723678725 -0.968157206 2.339867202
N -0.691362331 1.191772297 3.033225632
C 1.779873907 2.009894810 -0.178783889
C -0.938723115 2.176110396 0.441871258
H 1.696766077 -0.527295005 -3.109604450
H 4.206278547 -1.292615377 -0.870386915
H -0.033955979 -3.947271929 -1.632802608
H -3.936321136 -0.605333078 -1.405211042
H -1.868173212 -2.688629235 3.447402954
H 3.131547893 3.506452511 0.102824458
H -1.958120151 3.946577568 0.206510065

