14

C -0.676246298 2.998029010 0.433042250
C 0.164189176 0.320399039 -0.008569568
C -1.582172272 -1.370919524 -1.528678698
C -4.072681203 -1.626692821 -0.350105175
N -6.019299120 -1.799348744 0.587213553
C 2.301565099 -0.573593333 0.821290281
C 4.431921390 -1.474329022 1.647558818
H -0.955710147 3.974829786 -1.366356081
H -2.475824795 3.032967401 1.445344271
H 0.715488389 4.038141148 1.532354594
H 4.562773378 -2.344129272 3.497967414
H -1.862641323 -0.581827625 -3.419408513
H -0.764160156 -3.248086491 -1.749893138
H 6.136418071 -1.380989081 0.514617248

