8

O -1.909849931 -1.691905077 0.880178096
C -3.369862200 0.022527614 0.562821006
C -2.623114453 2.610349750 -0.221153836
C -0.221906041 3.216359047 -0.607393711
H 0.337032881 5.099857088 -1.179097507
H 1.246701892 1.811230246 -0.348499475
H -4.127977500 3.981449591 -0.465116496
H -5.422011381 -0.271933876 0.856411767

