12

O -3.599719736 -0.576705674 2.354253366
C -3.158063793 -0.374339004 0.135230238
C -1.077037084 1.237492387 -0.868487268
C 0.528387380 2.468894357 0.700865423
N 3.127923228 -0.350914186 0.770372158
C 2.348670208 -2.286817582 -0.362073529
O 0.738448183 -3.321693969 -1.595562077
H -4.299129088 -1.365175815 -1.300679878
H -0.918204242 1.402652844 -2.903922256
H 1.851220517 3.848110591 -0.019888139
H 0.170577848 2.441360859 2.715265908
H 4.281332989 -3.120239961 0.360050615

