17

C 4.649364994 -0.757075289 0.965288394
O 2.676951673 -0.277370108 2.678010203
C 0.280469655 -0.193356059 1.754123743
C -3.257580059 0.766395532 -3.619199543
C -1.585545962 0.352734993 3.792242161
C -0.321466451 -0.607751569 -0.657943715
O -2.796512585 -0.667290074 -1.423172133
H 4.427489774 -2.605398894 0.058552597
H 6.390685918 -0.741850484 2.058640031
H 4.749721791 0.704255214 -0.498359934
H -2.070190283 0.129688578 -5.194744186
H -2.899906304 2.778978837 -3.288182567
H -5.235544526 0.493683278 -4.118290915
H -1.076446223 2.102995021 4.758429932
H -3.477982086 0.522211301 3.011925848
H -1.570355984 -1.162931939 5.192675673
H 1.062258159 -1.013693105 -2.116786167

