17

C 4.497731385 -0.416987175 0.573933219
O 2.360242267 -0.107881422 2.131702966
C 0.037310998 -0.326341019 0.978103912
C -2.587305768 1.737870247 -2.240975056
C -1.995999276 0.469476434 2.792403168
C -0.413290058 -2.264621161 -0.762879923
O -2.091605774 -2.076197382 -2.428529732
H 4.879838997 -2.410660670 0.168919651
H 6.107244649 0.360560784 1.595251350
H 4.260649086 0.593796300 -1.215955953
H -1.251597171 1.961883880 -3.768468348
H -2.487737459 3.167149634 -0.779551673
H -4.492250840 1.275540851 -2.815848300
H -2.049668178 2.522263549 3.051737994
H -3.852200129 -0.149386837 2.152686825
H -1.605223661 -0.374868184 4.638831226
H 0.667150102 -4.031328723 -0.691869609

