12

O 0.212859431 -2.670959087 -2.203538656
C 0.143405061 -0.949922577 -0.295895811
C -2.157855642 -0.087228700 1.127419204
C -0.701352122 1.730506475 -0.491612025
O 1.177543490 3.074812136 0.759796948
C 3.071858399 1.192842694 0.956059652
H -0.154767133 -4.320703203 -1.539299564
H -3.915898412 -0.736261411 0.305059584
H -2.116128127 0.101038516 3.163891104
H -1.544187870 2.568110421 -2.161556481
H 1.880073158 -0.963819548 1.328129964
H 3.910059310 0.978810499 -0.944700886

