11

N -2.344055157 1.526708602 1.571461833
C -2.077323886 -0.614966637 0.219997682
O -3.806998107 -1.902661224 -0.541000962
C 0.617911946 -1.430035051 -0.350298683
C 4.187372801 1.344544824 -0.898385456
O 2.451663627 0.388327172 0.526601192
H -0.841329881 2.492604467 2.208391246
H -4.098436318 2.100916455 2.012769216
H 0.977530191 -3.203830031 0.632752305
H 3.962155903 0.464033626 -2.817898502
H 0.830045873 -1.702764748 -2.384907483

