11

N -2.426006645 1.582330744 1.517824622
C -2.010817639 -0.654162203 0.394220737
O -3.592638781 -2.224708955 -0.103545956
C 0.741078210 -1.140356572 -0.310716895
C 3.226951397 1.085139095 -1.541517290
O 2.473043100 0.491598041 0.914111266
H -0.968907144 2.730067301 1.921664499
H -4.197754730 2.047500493 2.010757376
H 1.260371396 -3.123025361 -0.169919789
H 4.584078622 -0.450711132 -2.071220448
H 0.786787359 -0.546403160 -2.414325605

