16

C 3.879067461 -0.038076602 0.261962415
O 1.685894104 -0.516230394 1.686693610
C -0.573196868 -0.007141521 0.412866003
C -1.114494536 2.753211703 -0.028104952
C -1.426319472 -1.946826070 -1.471811416
C -2.667503552 -1.755742369 1.090809332
H 5.472354157 -0.754291742 1.350820227
H 3.820698791 -1.010808967 -1.566900658
H 4.167432770 1.985127493 -0.073500652
H -2.980443616 2.995977259 -0.868666338
H -1.067161847 3.779072735 1.761413305
H 0.261354074 3.605832112 -1.308535545
H -2.469784928 -1.324676111 -3.117973915
H -0.194821560 -3.549199628 -1.784900257
H -2.229201477 -3.218563262 2.448936771
H -4.563873463 -0.997664656 1.206892071

