16

C 3.557849585 -0.709087622 0.958650221
O 2.154450998 1.430307493 0.354371553
C -0.099890432 1.114812596 -0.531697783
C -1.789799410 3.350521854 -0.409486587
C -1.009920399 -1.357004299 -1.468400233
C -1.069396675 -2.486068831 1.161825278
H 1.429227930 -1.876575407 1.952997330
H 3.986142801 -1.896057161 -0.672815954
H 5.247607139 -0.096961262 1.949829185
H -3.527985506 2.839810311 0.586536426
H -0.887970457 4.915292092 0.573767717
H -2.341924188 3.949493850 -2.310282122
H -2.802624753 -1.200707659 -2.474122077
H 0.346270732 -2.288834128 -2.711743061
H -0.715242687 -4.508124161 1.273948870
H -2.763335722 -1.961367135 2.197486354

