14

O 3.105888001 2.255811542 1.742698648
N 2.469395399 0.015886965 0.515020969
C 0.341058243 0.291453405 -0.807895014
C -0.509199838 -2.313489290 -1.416451454
C -1.178606990 -3.187103177 1.128564378
C -1.291590125 2.278579416 -1.009999919
O -0.927256786 4.627021363 -0.142905171
H 4.764111111 1.935804432 2.400470379
H 1.053719243 -3.404862233 -2.241057940
H -2.059388760 -2.367735579 -2.802007890
H -1.477176651 -1.820962411 2.611441614
H -1.732425681 -5.131801548 1.493735243
H -3.024330993 2.070164980 -2.076364698
H 0.647705065 4.650010864 0.785779039

