19

C 4.193146538 0.222744758 -0.568230384
C 2.026738506 1.641206333 0.592821863
O 0.856486297 0.688011431 2.558909515
C -0.592310503 -1.789915005 2.184121720
C -3.375851932 -1.532492581 2.604809810
C -2.212465476 -1.849949355 0.077108290
C -1.526777124 1.577298952 -2.903413995
H 3.628011128 -1.708005355 -1.028728352
H 5.785001785 0.122691584 0.746598988
H 4.831004637 1.151875019 -2.294120901
H 0.162592622 1.396309865 -1.247657848
H 2.129535129 3.695414635 0.656370556
H 0.552276750 -3.289997536 2.981206139
H -4.070145002 0.317012971 3.178249602
H -4.371063478 -3.096516018 3.502627082
H -2.463084111 -3.372911594 -1.255250711
H -0.548188365 3.142852065 -3.843390301
H -1.736338548 0.021514400 -4.212300027
H -3.338095639 2.207915205 -2.192846207

