18

C -3.401089697 0.350584126 -1.975805833
C -1.074784171 -0.735370934 -0.880129190
C 1.053507499 0.666796458 0.111609984
C 0.635292343 3.418920113 0.775206153
N 2.576461385 -0.602052835 1.893230168
C 3.595633902 -2.807161570 1.165921467
O 3.472906339 -3.798084949 -0.938649359
H -3.951959035 2.134869769 -1.117235527
H -3.090278259 0.656386070 -4.001473583
H -4.940344796 -1.012371185 -1.835934107
H -1.909949161 -1.862159367 2.506109981
H -0.637692295 -2.693098060 -1.316329323
H 1.998930487 0.459210402 -1.810986453
H -0.233657379 4.491629063 -0.756026227
H -0.565654650 3.544684732 2.449844028
H 2.447830827 4.270382687 1.241480427
H -0.522364199 -1.736866783 3.080339188
H 4.647608210 -3.739604747 2.703938776

