8

O 0.772563655 -5.810886876 -0.985807702
C 1.239710793 -3.698235921 -0.660789945
C 2.154953438 -1.449231456 -0.328716404
C 1.555498334 0.949826390 0.093753792
C -0.956353334 1.882995015 0.347223361
C -3.055518315 2.709020817 0.569741466
H 3.038290268 2.363520847 0.275689782
H -4.926238614 3.425461892 0.763576268

