10

N -3.418582703 0.807970697 -0.263939276
C -0.971426149 1.433814296 -0.244081618
C 1.110794320 2.478661180 -0.239944233
N 4.052020071 0.280002175 -0.147838037
N 3.224611576 -1.766021100 -0.108468333
N 1.039285288 -2.689594148 -0.114490229
H -4.002518733 -0.101132567 -1.832399771
H -4.049422945 -0.018859731 1.331659292
H 2.038810984 4.271385735 -0.270277455
H 1.100010711 -4.607331929 -0.065810978

