12

O -0.435306406 -0.984824949 4.903098369
C -0.454095292 -0.287782858 2.772854971
C -1.975075303 1.567914383 1.191678906
H -1.526533311 3.531370421 1.666825823
H -4.020148971 1.301823937 1.231068528
N -0.700364816 0.566014340 -1.089596185
H 0.207848217 1.911256662 -2.104087019
C 1.078682676 -0.961352548 0.375970442
C 3.753416963 0.010686156 0.509997642
O 4.430488127 1.906357755 -0.533814749
H 5.062588892 -1.136127894 1.667134642
H 1.105841234 -2.983629543 -0.066297923

