11

O 3.476356430 -2.433986108 -0.767262859
C 3.108525624 -0.697619365 0.642252128
C 0.803172323 0.970698302 0.526908688
N -1.001417236 0.145345299 -1.324055960
C -4.127654470 -0.482262756 -0.546528033
O -4.611335503 -0.880132308 1.564453652
H 4.496360332 -0.198024174 2.127528901
H -0.065547059 0.971917553 2.413756590
H 1.470629430 2.905362699 0.185828524
H -0.307288271 -1.151117541 -2.561845280
H -3.241805381 0.849816509 -2.261038241

