12

N 4.635632581 1.165644509 1.921174115
C 3.131597952 -0.177896814 0.796079482
C 1.628428289 -1.792839734 -0.306319257
C -0.766269997 -2.788056684 0.872327475
C -3.123955748 -2.093690690 -0.636261262
H -3.352361295 -0.046339316 -0.745252029
H -3.007117781 -2.815283650 -2.566785421
H -4.819130562 -2.887427006 0.231490071
H -0.925394801 -2.070084893 2.800618809
H -0.629272828 -4.845833847 1.027671258
H 2.143776464 -2.402641882 -2.194352319
H 4.357995625 3.054110356 1.700162840

