16

N 5.153149765 1.096776294 0.723934595
C 2.860050374 0.621930259 0.283197834
C 1.606044464 -1.717902153 -0.026496530
C -0.990671271 -2.264917244 0.999403468
C -2.541725404 -0.823090509 -0.976506904
C -1.176115387 2.636569284 -0.086457578
O 1.262718341 2.808333200 -0.380687010
H 5.562637882 2.942752575 0.386580876
H -0.633942851 -0.232457667 -2.128030075
H 2.897032692 -3.269055534 -0.355116029
H -1.345608797 -1.617003345 2.933837697
H -1.387145884 -4.284915985 0.975449697
H -2.942333453 -2.163346657 -2.508576149
H -4.380927924 0.047035756 -0.583495214
H -1.895593894 2.352707116 1.821371480
H -2.250806791 3.889062903 -1.305560908

