13

C -2.097082390 -1.538400659 -0.123325020
O 0.096180710 -3.060978225 -0.337468255
C 1.700435282 -1.329378563 0.871916497
C 2.164471856 2.135745959 -1.102648523
N -0.390461259 2.596262276 -1.765476651
C -0.764139274 0.968049416 0.352541599
H -3.258337820 -2.081617400 1.505112359
H -3.247941530 -1.612951167 -1.835399484
H 1.559725859 -1.422319281 2.941728079
H 3.646673496 -1.579678910 0.294214333
H 2.541740654 3.273670794 0.608663985
H -0.781656261 1.681222796 -3.405115041
H -1.210491640 2.001534530 2.066083020

