13

C -4.014026712 0.305515330 -0.406551767
O -2.411768976 -1.464658765 0.798288931
C 0.135851769 -1.154505348 0.795849956
C 1.190609643 0.886395163 -0.749044293
N 3.569003901 1.323351300 -0.615615891
C 5.733671873 1.770469137 -0.151508131
N 1.553901572 -2.597613600 2.068546675
H -3.707855213 2.219858501 0.305680359
H -5.933215575 -0.274756598 0.046635965
H -3.780562463 0.274545515 -2.459596357
H 0.085365902 2.035270563 -2.018884634
H 7.319371791 0.915184611 -1.132682621
H 0.501811443 -3.865422977 3.054589364

