13

C -3.517887886 0.246584844 -1.266563783
O -1.729996476 -1.359265999 -0.016422986
C 1.089028341 -0.428705744 -0.064016098
N 2.346585349 -0.158949211 -2.023834413
N 1.225613210 -0.161051134 2.423681394
C 3.458633539 0.412031122 3.629748939
O 3.646020917 0.658000218 5.879382267
H -5.391887370 -0.511884780 -0.898280463
H -3.135646237 0.190880669 -3.287278107
H -3.360519980 2.179191254 -0.564018487
H 1.527357837 -0.707350604 -3.657096999
H -1.330311350 -0.968405289 2.030076575
H 5.087859066 0.634494557 2.340051337

