12

C -2.990234967 1.281869922 -0.109572425
C -3.100970008 -1.223599121 -1.436627474
C -0.944434661 -0.654094040 -0.461244485
C 1.713153876 -1.371097649 -0.010738917
O 2.513108431 -3.379090186 -0.733476352
C 3.297475409 0.537326937 1.372740653
H -2.968745059 3.010881529 -1.225207580
H -4.263946280 -2.516623434 -2.488666410
H -3.896626985 1.484591123 1.726565338
H 3.306023264 2.320160288 0.331214887
H 2.460345406 0.928870934 3.219146526
H 5.216274082 -0.162904105 1.597526486

