12

C -2.847001154 0.960009765 -0.271811327
C -2.785688347 -2.079914606 -1.841537334
C -0.912580021 -0.974096823 -0.646132360
C 1.765068848 -1.472622996 -0.039858576
O 2.764625800 -3.419562053 -0.663425697
C 3.117255384 0.589042562 1.378340573
H -2.830054052 2.658151147 -1.427223649
H -4.539175744 -0.536918095 -1.607447491
H -3.802477749 1.101488704 1.540814709
H 3.058531880 2.344528268 0.292182083
H 2.158076513 0.953618145 3.170610687
H 5.067626656 0.043601802 1.724990780

