12

C -3.174747524 1.089572903 -1.122730756
C -1.201307023 0.068813470 -2.266098984
C -0.103215972 -2.433439316 -1.548354319
O 2.501511427 -2.170227301 -0.796878080
C 2.922511567 -1.642731210 1.630600132
O 1.357401349 -1.441572283 3.246961234
H 4.965715106 -1.432491525 1.934558611
H -0.040349829 -3.705923743 -3.167245141
H -1.174587940 -3.309504668 -0.023314534
H -0.284918978 1.039328506 -3.825970711
H -3.941606209 2.890798486 -1.720175286
H -4.084061304 0.162936136 0.463124687

