13

N -4.695846739 -0.266059832 -0.074957895
C -2.178461669 -0.757648727 0.386614381
C -0.459889173 1.232741030 -0.622153663
C 1.961937681 1.295074308 -0.171603025
C 4.368251717 1.318874274 0.341404441
O 6.223798913 0.148873645 -0.999226307
N -1.291939479 -2.634307527 1.595594619
H -5.942953542 -1.670821498 0.196635357
H -5.146407222 0.971306888 -1.440087941
H -1.309354514 2.699813315 -1.786893030
H 5.100242479 2.330146829 1.963457059
H 5.463293922 -0.877438125 -2.289801252
H -2.683761679 -3.823235484 2.180838869

