24

C     2.48809  -1.03001   0.29051
C     1.17122  -0.28231   0.27185
O     1.03037   0.56059   1.44653
N    -0.12712   1.26781   1.11201
O     0.19009   1.72617  -0.23955
C     0.97619   0.75240  -0.81418
O     1.27664   0.77298  -1.97438
C    -1.23661  -0.11239   0.84425
C    -2.37780   0.56676   0.15082
O    -2.44998   0.77167  -1.04524
C    -0.30030  -1.12872   0.21214
C    -0.64145  -1.62214  -1.21911
C    -0.11804  -2.36465   1.13448
H     2.46432  -1.72957  -0.53751
H     2.57845  -1.58812   1.24520
H     3.42215  -0.41216   0.18689
H    -1.52099  -0.34112   1.89941
H    -3.11311   1.02138   0.84988
H    -0.93635  -0.80428  -1.88476
H    -1.45033  -2.39790  -1.28814
H     0.26987  -2.09706  -1.60864
H     0.68145  -2.99983   0.70020
H    -1.00457  -3.02648   1.25437
H     0.19080  -2.03404   2.12775
24

C     2.49169  -1.02933   0.29264
C     1.18958  -0.26586   0.27386
O     1.02906   0.56043   1.44366
N    -0.11170   1.28367   1.11361
O     0.19063   1.72553  -0.23638
C     0.97925   0.75338  -0.81369
O     1.27477   0.77191  -1.97589
C    -1.25094  -0.12872   0.84178
C    -2.37767   0.56600   0.15073
O    -2.45041   0.77260  -1.04583
C    -0.32467  -1.14129   0.21288
C    -0.64336  -1.62386  -1.22079
C    -0.11800  -2.36687   1.13393
H     2.46257  -1.72934  -0.53667
H     2.57838  -1.58741   1.24613
H     3.42512  -0.41513   0.18645
H    -1.52136  -0.34164   1.89943
H    -3.11138   1.02345   0.85010
H    -0.93736  -0.80431  -1.88439
H    -1.44875  -2.40022  -1.29204
H     0.27116  -2.09498  -1.60738
H     0.68285  -2.99800   0.69937
H    -1.00193  -3.03026   1.25562
H     0.19035  -2.03317   2.12717
24

C     2.49529  -1.02865   0.29476
C     1.20795  -0.24940   0.27587
O     1.02775   0.56026   1.44080
N    -0.09628   1.29953   1.11521
O     0.19116   1.72488  -0.23320
C     0.98232   0.75436  -0.81321
O     1.27291   0.77084  -1.97740
C    -1.26527  -0.14505   0.83931
C    -2.37755   0.56523   0.15064
O    -2.45083   0.77353  -1.04642
C    -0.34904  -1.15386   0.21363
C    -0.64527  -1.62557  -1.22247
C    -0.11797  -2.36908   1.13339
H     2.46083  -1.72910  -0.53583
H     2.57832  -1.58671   1.24706
H     3.42808  -0.41809   0.18600
H    -1.52172  -0.34215   1.89946
H    -3.10966   1.02551   0.85032
H    -0.93836  -0.80435  -1.88402
H    -1.44717  -2.40254  -1.29594
H     0.27245  -2.09291  -1.60612
H     0.68425  -2.99618   0.69854
H    -0.99929  -3.03404   1.25688
H     0.18989  -2.03231   2.12659
24

C     2.49888  -1.02797   0.29689
C     1.22631  -0.23295   0.27788
O     1.02644   0.56009   1.43793
N    -0.08086   1.31538   1.11681
O     0.19170   1.72424  -0.23003
C     0.98538   0.75534  -0.81272
O     1.27105   0.76976  -1.97890
C    -1.27961  -0.16139   0.83684
C    -2.37742   0.56446   0.15054
O    -2.45126   0.77446  -1.04701
C    -0.37341  -1.16643   0.21438
C    -0.64718  -1.62729  -1.22415
C    -0.11794  -2.37130   1.13284
H     2.45908  -1.72887  -0.53499
H     2.57826  -1.58601   1.24799
H     3.43105  -0.42105   0.18556
H    -1.52209  -0.34267   1.89949
H    -3.10793   1.02758   0.85054
H    -0.93936  -0.80438  -1.88366
H    -1.44560  -2.40487  -1.29984
H     0.27375  -2.09084  -1.60485
H     0.68566  -2.99435   0.69772
H    -0.99664  -3.03781   1.25813
H     0.18943  -2.03145   2.12602
24

C     2.50248  -1.02730   0.29901
C     1.24468  -0.21650   0.27989
O     1.02513   0.55993   1.43507
N    -0.06544   1.33124   1.11842
O     0.19224   1.72359  -0.22686
C     0.98844   0.75632  -0.81223
O     1.26918   0.76869  -1.98041
C    -1.29394  -0.17772   0.83437
C    -2.37730   0.56370   0.15045
O    -2.45169   0.77540  -1.04760
C    -0.39778  -1.17899   0.21512
C    -0.64909  -1.62901  -1.22583
C    -0.11791  -2.37351   1.13230
H     2.45733  -1.72864  -0.53415
H     2.57819  -1.58530   1.24891
H     3.43402  -0.42402   0.18512
H    -1.52246  -0.34318   1.89951
H    -3.10620   1.02964   0.85076
H    -0.94036  -0.80441  -1.88329
H    -1.44402  -2.40719  -1.30374
H     0.27504  -2.08877  -1.60359
H     0.68706  -2.99252   0.69689
H    -0.99400  -3.04159   1.25938
H     0.18897  -2.03059   2.12544
24

C     2.50608  -1.02662   0.30114
C     1.26304  -0.20005   0.28190
O     1.02382   0.55976   1.43220
N    -0.05001   1.34710   1.12002
O     0.19278   1.72295  -0.22368
C     0.99150   0.75730  -0.81175
O     1.26732   0.76761  -1.98192
C    -1.30827  -0.19405   0.83190
C    -2.37717   0.56293   0.15035
O    -2.45211   0.77633  -1.04819
C    -0.42216  -1.19156   0.21587
C    -0.65100  -1.63072  -1.22751
C    -0.11788  -2.37572   1.13175
H     2.45558  -1.72841  -0.53331
H     2.57813  -1.58460   1.24984
H     3.43699  -0.42698   0.18468
H    -1.52282  -0.34370   1.89954
H    -3.10448   1.03171   0.85098
H    -0.94136  -0.80445  -1.88292
H    -1.44244  -2.40952  -1.30764
H     0.27634  -2.08669  -1.60232
H     0.68846  -2.99069   0.69606
H    -0.99136  -3.04537   1.26064
H     0.18852  -2.02973   2.12487
24

C     2.50968  -1.02594   0.30326
C     1.28141  -0.18359   0.28391
O     1.02250   0.55959   1.42934
N    -0.03459   1.36296   1.12162
O     0.19332   1.72231  -0.22051
C     0.99457   0.75828  -0.81126
O     1.26545   0.76654  -1.98342
C    -1.32260  -0.21039   0.82943
C    -2.37705   0.56216   0.15026
O    -2.45254   0.77726  -1.04878
C    -0.44653  -1.20413   0.21662
C    -0.65291  -1.63244  -1.22919
C    -0.11785  -2.37794   1.13120
H     2.45383  -1.72818  -0.53247
H     2.57807  -1.58390   1.25077
H     3.43996  -0.42994   0.18423
H    -1.52319  -0.34421   1.89957
H    -3.10275   1.03377   0.85121
H    -0.94237  -0.80448  -1.88255
H    -1.44086  -2.41184  -1.31154
H     0.27763  -2.08462  -1.60106
H     0.68986  -2.98887   0.69524
H    -0.98872  -3.04915   1.26189
H     0.18806  -2.02886   2.12429
24

C     2.51328  -1.02526   0.30539
C     1.29977  -0.16714   0.28592
O     1.02119   0.55943   1.42648
N    -0.01917   1.37882   1.12322
O     0.19385   1.72166  -0.21734
C     0.99763   0.75926  -0.81077
O     1.26359   0.76546  -1.98493
C    -1.33693  -0.22672   0.82696
C    -2.37692   0.56140   0.15016
O    -2.45296   0.77819  -1.04937
C    -0.47090  -1.21670   0.21736
C    -0.65482  -1.63416  -1.23087
C    -0.11782  -2.38015   1.13066
H     2.45209  -1.72795  -0.53163
H     2.57800  -1.58319   1.25170
H     3.44292  -0.43291   0.18379
H    -1.52356  -0.34473   1.89960
H    -3.10102   1.03584   0.85143
H    -0.94337  -0.80451  -1.88219
H    -1.43929  -2.41416  -1.31544
H     0.27892  -2.08255  -1.59980
H     0.69126  -2.98704   0.69441
H    -0.98608  -3.05292   1.26315
H     0.18760  -2.02800   2.12371
24

C     2.51688  -1.02458   0.30751
C     1.31814  -0.15069   0.28793
O     1.01988   0.55926   1.42361
N    -0.00375   1.39468   1.12483
O     0.19439   1.72102  -0.21416
C     1.00069   0.76024  -0.81029
O     1.26173   0.76439  -1.98644
C    -1.35126  -0.24305   0.82449
C    -2.37679   0.56063   0.15007
O    -2.45339   0.77913  -1.04997
C    -0.49527  -1.22926   0.21811
C    -0.65673  -1.63587  -1.23255
C    -0.11779  -2.38237   1.13011
H     2.45034  -1.72771  -0.53079
H     2.57794  -1.58249   1.25263
H     3.44589  -0.43587   0.18335
H    -1.52392  -0.34524   1.89962
H    -3.09930   1.03790   0.85165
H    -0.94437  -0.80455  -1.88182
H    -1.43771  -2.41649  -1.31934
H     0.28022  -2.08047  -1.59853
H     0.69266  -2.98521   0.69358
H    -0.98343  -3.05670   1.26440
H     0.18714  -2.02714   2.12314
24

C     2.52048  -1.02391   0.30964
C     1.33651  -0.13423   0.28994
O     1.01857   0.55909   1.42075
N     0.01168   1.41053   1.12643
O     0.19493   1.72037  -0.21099
C     1.00375   0.76121  -0.80980
O     1.25986   0.76331  -1.98794
C    -1.36560  -0.25939   0.82202
C    -2.37667   0.55986   0.14998
O    -2.45382   0.78006  -1.05056
C    -0.51964  -1.24183   0.21885
C    -0.65864  -1.63759  -1.23423
C    -0.11775  -2.38458   1.12956
H     2.44859  -1.72748  -0.52995
H     2.57788  -1.58179   1.25356
H     3.44886  -0.43883   0.18291
H    -1.52429  -0.34576   1.89965
H    -3.09757   1.03997   0.85187
H    -0.94537  -0.80458  -1.88145
H    -1.43613  -2.41881  -1.32324
H     0.28151  -2.07840  -1.59727
H     0.69406  -2.98338   0.69276
H    -0.98079  -3.06048   1.26566
H     0.18669  -2.02628   2.12256
24

C     2.52408  -1.02323   0.31176
C     1.35487  -0.11778   0.29195
O     1.01726   0.55893   1.41788
N     0.02710   1.42639   1.12803
O     0.19547   1.71973  -0.20782
C     1.00682   0.76219  -0.80931
O     1.25800   0.76224  -1.98945
C    -1.37993  -0.27572   0.81955
C    -2.37654   0.55910   0.14988
O    -2.45424   0.78099  -1.05115
C    -0.54401  -1.25440   0.21960
C    -0.66055  -1.63931  -1.23591
C    -0.11772  -2.38680   1.12902
H     2.44684  -1.72725  -0.52911
H     2.57781  -1.58108   1.25449
H     3.45183  -0.44180   0.18246
H    -1.52465  -0.34627   1.89968
H    -3.09584   1.04203   0.85209
H    -0.94637  -0.80462  -1.88108
H    -1.43455  -2.42114  -1.32714
H     0.28281  -2.07633  -1.59600
H     0.69546  -2.98156   0.69193
H    -0.97815  -3.06426   1.26691
H     0.18623  -2.02542   2.12199
24

C     2.52768  -1.02255   0.31389
C     1.37324  -0.10133   0.29396
O     1.01595   0.55876   1.41502
N     0.04252   1.44225   1.12963
O     0.19600   1.71908  -0.20464
C     1.00988   0.76317  -0.80883
O     1.25613   0.76116  -1.99096
C    -1.39426  -0.29205   0.81708
C    -2.37642   0.55833   0.14979
O    -2.45467   0.78192  -1.05174
C    -0.56839  -1.26697   0.22035
C    -0.66246  -1.64103  -1.23759
C    -0.11769  -2.38901   1.12847
H     2.44509  -1.72702  -0.52827
H     2.57775  -1.58038   1.25542
H     3.45480  -0.44476   0.18202
H    -1.52502  -0.34679   1.89971
H    -3.09412   1.04410   0.85231
H    -0.94738  -0.80465  -1.88072
H    -1.43298  -2.42346  -1.33104
H     0.28410  -2.07426  -1.59474
H     0.69687  -2.97973   0.69111
H    -0.97551  -3.06804   1.26817
H     0.18577  -2.02455   2.12141
24

C     2.53128  -1.02187   0.31601
C     1.39160  -0.08487   0.29596
O     1.01464   0.55859   1.41215
N     0.05794   1.45811   1.13123
O     0.19654   1.71844  -0.20147
C     1.01294   0.76415  -0.80834
O     1.25427   0.76009  -1.99246
C    -1.40859  -0.30839   0.81461
C    -2.37629   0.55756   0.14969
O    -2.45509   0.78286  -1.05233
C    -0.59276  -1.27953   0.22109
C    -0.66437  -1.64274  -1.23927
C    -0.11766  -2.39123   1.12793
H     2.44335  -1.72679  -0.52743
H     2.57768  -1.57968   1.25635
H     3.45776  -0.44772   0.18158
H    -1.52539  -0.34730   1.89973
H    -3.09239   1.04616   0.85254
H    -0.94838  -0.80468  -1.88035
H    -1.43140  -2.42578  -1.33494
H     0.28539  -2.07218  -1.59347
H     0.69827  -2.97790   0.69028
H    -0.97287  -3.07181   1.26942
H     0.18531  -2.02369   2.12084
24

C     2.53488  -1.02119   0.31814
C     1.40997  -0.06842   0.29797
O     1.01333   0.55843   1.40929
N     0.07337   1.47397   1.13284
O     0.19708   1.71779  -0.19830
C     1.01600   0.76513  -0.80785
O     1.25241   0.75902  -1.99397
C    -1.42292  -0.32472   0.81214
C    -2.37617   0.55680   0.14960
O    -2.45552   0.78379  -1.05292
C    -0.61713  -1.29210   0.22184
C    -0.66628  -1.64446  -1.24095
C    -0.11763  -2.39344   1.12738
H     2.44160  -1.72656  -0.52659
H     2.57762  -1.57898   1.25727
H     3.46073  -0.45069   0.18114
H    -1.52575  -0.34782   1.89976
H    -3.09066   1.04823   0.85276
H    -0.94938  -0.80472  -1.87998
H    -1.42982  -2.42811  -1.33884
H     0.28669  -2.07011  -1.59221
H     0.69967  -2.97607   0.68945
H    -0.97022  -3.07559   1.27068
H     0.18486  -2.02283   2.12026
24

C     2.53848  -1.02052   0.32026
C     1.42833  -0.05197   0.29998
O     1.01202   0.55826   1.40642
N     0.08879   1.48983   1.13444
O     0.19762   1.71715  -0.19512
C     1.01907   0.76611  -0.80736
O     1.25054   0.75794  -1.99548
C    -1.43726  -0.34105   0.80967
C    -2.37604   0.55603   0.14951
O    -2.45595   0.78472  -1.05351
C    -0.64150  -1.30467   0.22258
C    -0.66819  -1.64618  -1.24263
C    -0.11760  -2.39565   1.12683
H     2.43985  -1.72633  -0.52575
H     2.57756  -1.57827   1.25820
H     3.46370  -0.45365   0.18069
H    -1.52612  -0.34833   1.89979
H    -3.08894   1.05029   0.85298
H    -0.95038  -0.80475  -1.87961
H    -1.42825  -2.43043  -1.34274
H     0.28798  -2.06804  -1.59095
H     0.70107  -2.97425   0.68863
H    -0.96758  -3.07937   1.27193
H     0.18440  -2.02197   2.11968
24

C     2.54208  -1.01984   0.32239
C     1.44670  -0.03551   0.30199
O     1.01071   0.55809   1.40356
N     0.10421   1.50568   1.13604
O     0.19816   1.71650  -0.19195
C     1.02213   0.76709  -0.80688
O     1.24868   0.75687  -1.99698
C    -1.45159  -0.35739   0.80720
C    -2.37592   0.55526   0.14941
O    -2.45637   0.78565  -1.05410
C    -0.66587  -1.31724   0.22333
C    -0.67010  -1.64789  -1.24431
C    -0.11757  -2.39787   1.12629
H     2.43810  -1.72609  -0.52491
H     2.57749  -1.57757   1.25913
H     3.46667  -0.45661   0.18025
H    -1.52649  -0.34884   1.89982
H    -3.08721   1.05236   0.85320
H    -0.95138  -0.80478  -1.87925
H    -1.42667  -2.43276  -1.34664
H     0.28928  -2.06596  -1.58968
H     0.70247  -2.97242   0.68780
H    -0.96494  -3.08315   1.27319
H     0.18394  -2.02111   2.11911
24

C     2.54568  -1.01916   0.32451
C     1.46506  -0.01906   0.30400
O     1.00940   0.55793   1.40070
N     0.11963   1.52154   1.13764
O     0.19869   1.71586  -0.18878
C     1.02519   0.76807  -0.80639
O     1.24682   0.75579  -1.99849
C    -1.46592  -0.37372   0.80473
C    -2.37579   0.55450   0.14932
O    -2.45680   0.78659  -1.05469
C    -0.69024  -1.32980   0.22408
C    -0.67201  -1.64961  -1.24599
C    -0.11753  -2.40008   1.12574
H     2.43635  -1.72586  -0.52407
H     2.57743  -1.57687   1.26006
H     3.46964  -0.45958   0.17981
H    -1.52685  -0.34936   1.89984
H    -3.08548   1.05442   0.85342
H    -0.95238  -0.80482  -1.87888
H    -1.42509  -2.43508  -1.35054
H     0.29057  -2.06389  -1.58842
H     0.70387  -2.97059   0.68697
H    -0.96230  -3.08692   1.27444
H     0.18349  -2.02025   2.11853
24

C     2.54928  -1.01848   0.32664
C     1.48343  -0.00261   0.30601
O     1.00809   0.55776   1.39783
N     0.13505   1.53740   1.13925
O     0.19923   1.71522  -0.18560
C     1.02825   0.76905  -0.80590
O     1.24495   0.75472  -2.00000
C    -1.48025  -0.39005   0.80226
C    -2.37566   0.55373   0.14922
O    -2.45722   0.78752  -1.05528
C    -0.71462  -1.34237   0.22482
C    -0.67392  -1.65133  -1.24767
C    -0.11750  -2.40230   1.12520
H     2.43461  -1.72563  -0.52324
H     2.57737  -1.57616   1.26099
H     3.47260  -0.46254   0.17937
H    -1.52722  -0.34987   1.89987
H    -3.08376   1.05649   0.85364
H    -0.95339  -0.80485  -1.87851
H    -1.42351  -2.43740  -1.35444
H     0.29187  -2.06182  -1.58715
H     0.70527  -2.96876   0.68615
H    -0.95966  -3.09070   1.27570
H     0.18303  -2.01938   2.11796
24

C     2.55288  -1.01780   0.32877
C     1.50179   0.01385   0.30802
O     1.00677   0.55759   1.39497
N     0.15048   1.55326   1.14085
O     0.19977   1.71457  -0.18243
C     1.03131   0.77003  -0.80542
O     1.24309   0.75364  -2.00150
C    -1.49458  -0.40639   0.79979
C    -2.37554   0.55296   0.14913
O    -2.45765   0.78845  -1.05587
C    -0.73899  -1.35494   0.22557
C    -0.67583  -1.65304  -1.24935
C    -0.11747  -2.40451   1.12465
H     2.43286  -1.72540  -0.52240
H     2.57730  -1.57546   1.26192
H     3.47557  -0.46550   0.17892
H    -1.52759  -0.35039   1.89990
H    -3.08203   1.05855   0.85387
H    -0.95439  -0.80489  -1.87814
H    -1.42194  -2.43973  -1.35833
H     0.29316  -2.05975  -1.58589
H     0.70668  -2.96694   0.68532
H    -0.95701  -3.09448   1.27695
H     0.18257  -2.01852   2.11738
24

C     2.55648  -1.01713   0.33089
C     1.52016   0.03030   0.31003
O     1.00546   0.55743   1.39210
N     0.16590   1.56912   1.14245
O     0.20031   1.71393  -0.17926
C     1.03438   0.77101  -0.80493
O     1.24122   0.75257  -2.00301
C    -1.50891  -0.42272   0.79732
C    -2.37541   0.55220   0.14903
O    -2.45808   0.78938  -1.05646
C    -0.76336  -1.36750   0.22632
C    -0.67773  -1.65476  -1.25103
C    -0.11744  -2.40673   1.12410
H     2.43111  -1.72517  -0.52156
H     2.57724  -1.57476   1.26285
H     3.47854  -0.46847   0.17848
H    -1.52795  -0.35090   1.89993
H    -3.08030   1.06062   0.85409
H    -0.95539  -0.80492  -1.87778
H    -1.42036  -2.44205  -1.36223
H     0.29445  -2.05767  -1.58463
H     0.70808  -2.96511   0.68449
H    -0.95437  -3.09826   1.27821
H     0.18211  -2.01766   2.11680
24

C     2.56008  -1.01645   0.33302
C     1.53852   0.04675   0.31204
O     1.00415   0.55726   1.38924
N     0.18132   1.58498   1.14405
O     0.20084   1.71328  -0.17608
C     1.03744   0.77198  -0.80444
O     1.23936   0.75149  -2.00452
C    -1.52325  -0.43905   0.79485
C    -2.37529   0.55143   0.14894
O    -2.45850   0.79032  -1.05706
C    -0.78773  -1.38007   0.22706
C    -0.67964  -1.65648  -1.25271
C    -0.11741  -2.40894   1.12356
H     2.42936  -1.72494  -0.52072
H     2.57718  -1.57405   1.26378
H     3.48151  -0.47143   0.17804
H    -1.52832  -0.35142   1.89995
H    -3.07858   1.06268   0.85431
H    -0.95639  -0.80495  -1.87741
H    -1.41878  -2.44438  -1.36613
H     0.29575  -2.05560  -1.58336
H     0.70948  -2.96328   0.68367
H    -0.95173  -3.10203   1.27946
H     0.18166  -2.01680   2.11623
24

C     2.55648  -1.01713   0.33089
C     1.52016   0.03030   0.31003
O     1.00546   0.55743   1.39210
N     0.16590   1.56912   1.14245
O     0.20031   1.71393  -0.17926
C     1.03438   0.77101  -0.80493
O     1.24122   0.75257  -2.00301
C    -1.50891  -0.42272   0.79732
C    -2.37541   0.55220   0.14903
O    -2.45808   0.78938  -1.05646
C    -0.76336  -1.36750   0.22632
C    -0.67773  -1.65476  -1.25103
C    -0.11744  -2.40673   1.12410
H     2.43111  -1.72517  -0.52156
H     2.57724  -1.57476   1.26285
H     3.47854  -0.46847   0.17848
H    -1.52795  -0.35090   1.89993
H    -3.08030   1.06062   0.85409
H    -0.95539  -0.80492  -1.87778
H    -1.42036  -2.44205  -1.36223
H     0.29445  -2.05767  -1.58463
H     0.70808  -2.96511   0.68449
H    -0.95437  -3.09826   1.27821
H     0.18211  -2.01766   2.11680
24

C     2.55288  -1.01780   0.32877
C     1.50179   0.01385   0.30802
O     1.00677   0.55759   1.39497
N     0.15048   1.55326   1.14085
O     0.19977   1.71457  -0.18243
C     1.03131   0.77003  -0.80542
O     1.24309   0.75364  -2.00150
C    -1.49458  -0.40639   0.79979
C    -2.37554   0.55296   0.14913
O    -2.45765   0.78845  -1.05587
C    -0.73899  -1.35494   0.22557
C    -0.67583  -1.65304  -1.24935
C    -0.11747  -2.40451   1.12465
H     2.43286  -1.72540  -0.52240
H     2.57730  -1.57546   1.26192
H     3.47557  -0.46550   0.17892
H    -1.52759  -0.35039   1.89990
H    -3.08203   1.05855   0.85387
H    -0.95439  -0.80489  -1.87814
H    -1.42194  -2.43973  -1.35833
H     0.29316  -2.05975  -1.58589
H     0.70668  -2.96694   0.68532
H    -0.95701  -3.09448   1.27695
H     0.18257  -2.01852   2.11738
24

C     2.54928  -1.01848   0.32664
C     1.48343  -0.00261   0.30601
O     1.00809   0.55776   1.39783
N     0.13505   1.53740   1.13925
O     0.19923   1.71522  -0.18560
C     1.02825   0.76905  -0.80590
O     1.24495   0.75472  -2.00000
C    -1.48025  -0.39005   0.80226
C    -2.37566   0.55373   0.14922
O    -2.45722   0.78752  -1.05528
C    -0.71462  -1.34237   0.22482
C    -0.67392  -1.65133  -1.24767
C    -0.11750  -2.40230   1.12520
H     2.43461  -1.72563  -0.52324
H     2.57737  -1.57616   1.26099
H     3.47260  -0.46254   0.17937
H    -1.52722  -0.34987   1.89987
H    -3.08376   1.05649   0.85364
H    -0.95339  -0.80485  -1.87851
H    -1.42351  -2.43740  -1.35444
H     0.29187  -2.06182  -1.58715
H     0.70527  -2.96876   0.68615
H    -0.95966  -3.09070   1.27570
H     0.18303  -2.01938   2.11796
24

C     2.54568  -1.01916   0.32451
C     1.46506  -0.01906   0.30400
O     1.00940   0.55793   1.40070
N     0.11963   1.52154   1.13764
O     0.19869   1.71586  -0.18878
C     1.02519   0.76807  -0.80639
O     1.24682   0.75579  -1.99849
C    -1.46592  -0.37372   0.80473
C    -2.37579   0.55450   0.14932
O    -2.45680   0.78659  -1.05469
C    -0.69024  -1.32980   0.22408
C    -0.67201  -1.64961  -1.24599
C    -0.11753  -2.40008   1.12574
H     2.43635  -1.72586  -0.52407
H     2.57743  -1.57687   1.26006
H     3.46964  -0.45958   0.17981
H    -1.52685  -0.34936   1.89984
H    -3.08548   1.05442   0.85342
H    -0.95238  -0.80482  -1.87888
H    -1.42509  -2.43508  -1.35054
H     0.29057  -2.06389  -1.58842
H     0.70387  -2.97059   0.68697
H    -0.96230  -3.08692   1.27444
H     0.18349  -2.02025   2.11853
24

C     2.54208  -1.01984   0.32239
C     1.44670  -0.03551   0.30199
O     1.01071   0.55809   1.40356
N     0.10421   1.50568   1.13604
O     0.19816   1.71650  -0.19195
C     1.02213   0.76709  -0.80688
O     1.24868   0.75687  -1.99698
C    -1.45159  -0.35739   0.80720
C    -2.37592   0.55526   0.14941
O    -2.45637   0.78565  -1.05410
C    -0.66587  -1.31724   0.22333
C    -0.67010  -1.64789  -1.24431
C    -0.11757  -2.39787   1.12629
H     2.43810  -1.72609  -0.52491
H     2.57749  -1.57757   1.25913
H     3.46667  -0.45661   0.18025
H    -1.52649  -0.34884   1.89982
H    -3.08721   1.05236   0.85320
H    -0.95138  -0.80478  -1.87925
H    -1.42667  -2.43276  -1.34664
H     0.28928  -2.06596  -1.58968
H     0.70247  -2.97242   0.68780
H    -0.96494  -3.08315   1.27319
H     0.18394  -2.02111   2.11911
24

C     2.53848  -1.02052   0.32026
C     1.42833  -0.05197   0.29998
O     1.01202   0.55826   1.40642
N     0.08879   1.48983   1.13444
O     0.19762   1.71715  -0.19512
C     1.01907   0.76611  -0.80736
O     1.25054   0.75794  -1.99548
C    -1.43726  -0.34105   0.80967
C    -2.37604   0.55603   0.14951
O    -2.45595   0.78472  -1.05351
C    -0.64150  -1.30467   0.22258
C    -0.66819  -1.64618  -1.24263
C    -0.11760  -2.39565   1.12683
H     2.43985  -1.72633  -0.52575
H     2.57756  -1.57827   1.25820
H     3.46370  -0.45365   0.18069
H    -1.52612  -0.34833   1.89979
H    -3.08894   1.05029   0.85298
H    -0.95038  -0.80475  -1.87961
H    -1.42825  -2.43043  -1.34274
H     0.28798  -2.06804  -1.59095
H     0.70107  -2.97425   0.68863
H    -0.96758  -3.07937   1.27193
H     0.18440  -2.02197   2.11968
24

C     2.53488  -1.02119   0.31814
C     1.40997  -0.06842   0.29797
O     1.01333   0.55843   1.40929
N     0.07337   1.47397   1.13284
O     0.19708   1.71779  -0.19830
C     1.01600   0.76513  -0.80785
O     1.25241   0.75902  -1.99397
C    -1.42292  -0.32472   0.81214
C    -2.37617   0.55680   0.14960
O    -2.45552   0.78379  -1.05292
C    -0.61713  -1.29210   0.22184
C    -0.66628  -1.64446  -1.24095
C    -0.11763  -2.39344   1.12738
H     2.44160  -1.72656  -0.52659
H     2.57762  -1.57898   1.25727
H     3.46073  -0.45069   0.18114
H    -1.52575  -0.34782   1.89976
H    -3.09066   1.04823   0.85276
H    -0.94938  -0.80472  -1.87998
H    -1.42982  -2.42811  -1.33884
H     0.28669  -2.07011  -1.59221
H     0.69967  -2.97607   0.68945
H    -0.97022  -3.07559   1.27068
H     0.18486  -2.02283   2.12026
24

C     2.53128  -1.02187   0.31601
C     1.39160  -0.08487   0.29596
O     1.01464   0.55859   1.41215
N     0.05794   1.45811   1.13123
O     0.19654   1.71844  -0.20147
C     1.01294   0.76415  -0.80834
O     1.25427   0.76009  -1.99246
C    -1.40859  -0.30839   0.81461
C    -2.37629   0.55756   0.14969
O    -2.45509   0.78286  -1.05233
C    -0.59276  -1.27953   0.22109
C    -0.66437  -1.64274  -1.23927
C    -0.11766  -2.39123   1.12793
H     2.44335  -1.72679  -0.52743
H     2.57768  -1.57968   1.25635
H     3.45776  -0.44772   0.18158
H    -1.52539  -0.34730   1.89973
H    -3.09239   1.04616   0.85254
H    -0.94838  -0.80468  -1.88035
H    -1.43140  -2.42578  -1.33494
H     0.28539  -2.07218  -1.59347
H     0.69827  -2.97790   0.69028
H    -0.97287  -3.07181   1.26942
H     0.18531  -2.02369   2.12084
24

C     2.52768  -1.02255   0.31389
C     1.37324  -0.10133   0.29396
O     1.01595   0.55876   1.41502
N     0.04252   1.44225   1.12963
O     0.19600   1.71908  -0.20464
C     1.00988   0.76317  -0.80883
O     1.25613   0.76116  -1.99096
C    -1.39426  -0.29205   0.81708
C    -2.37642   0.55833   0.14979
O    -2.45467   0.78192  -1.05174
C    -0.56839  -1.26697   0.22035
C    -0.66246  -1.64103  -1.23759
C    -0.11769  -2.38901   1.12847
H     2.44509  -1.72702  -0.52827
H     2.57775  -1.58038   1.25542
H     3.45480  -0.44476   0.18202
H    -1.52502  -0.34679   1.89971
H    -3.09412   1.04410   0.85231
H    -0.94738  -0.80465  -1.88072
H    -1.43298  -2.42346  -1.33104
H     0.28410  -2.07426  -1.59474
H     0.69687  -2.97973   0.69111
H    -0.97551  -3.06804   1.26817
H     0.18577  -2.02455   2.12141
24

C     2.52408  -1.02323   0.31176
C     1.35487  -0.11778   0.29195
O     1.01726   0.55893   1.41788
N     0.02710   1.42639   1.12803
O     0.19547   1.71973  -0.20782
C     1.00682   0.76219  -0.80931
O     1.25800   0.76224  -1.98945
C    -1.37993  -0.27572   0.81955
C    -2.37654   0.55910   0.14988
O    -2.45424   0.78099  -1.05115
C    -0.54401  -1.25440   0.21960
C    -0.66055  -1.63931  -1.23591
C    -0.11772  -2.38680   1.12902
H     2.44684  -1.72725  -0.52911
H     2.57781  -1.58108   1.25449
H     3.45183  -0.44180   0.18246
H    -1.52465  -0.34627   1.89968
H    -3.09584   1.04203   0.85209
H    -0.94637  -0.80462  -1.88108
H    -1.43455  -2.42114  -1.32714
H     0.28281  -2.07633  -1.59600
H     0.69546  -2.98156   0.69193
H    -0.97815  -3.06426   1.26691
H     0.18623  -2.02542   2.12199
24

C     2.52048  -1.02391   0.30964
C     1.33651  -0.13423   0.28994
O     1.01857   0.55909   1.42075
N     0.01168   1.41053   1.12643
O     0.19493   1.72037  -0.21099
C     1.00375   0.76121  -0.80980
O     1.25986   0.76331  -1.98794
C    -1.36560  -0.25939   0.82202
C    -2.37667   0.55986   0.14998
O    -2.45382   0.78006  -1.05056
C    -0.51964  -1.24183   0.21885
C    -0.65864  -1.63759  -1.23423
C    -0.11775  -2.38458   1.12956
H     2.44859  -1.72748  -0.52995
H     2.57788  -1.58179   1.25356
H     3.44886  -0.43883   0.18291
H    -1.52429  -0.34576   1.89965
H    -3.09757   1.03997   0.85187
H    -0.94537  -0.80458  -1.88145
H    -1.43613  -2.41881  -1.32324
H     0.28151  -2.07840  -1.59727
H     0.69406  -2.98338   0.69276
H    -0.98079  -3.06048   1.26566
H     0.18669  -2.02628   2.12256
24

C     2.51688  -1.02458   0.30751
C     1.31814  -0.15069   0.28793
O     1.01988   0.55926   1.42361
N    -0.00375   1.39468   1.12483
O     0.19439   1.72102  -0.21416
C     1.00069   0.76024  -0.81029
O     1.26173   0.76439  -1.98644
C    -1.35126  -0.24305   0.82449
C    -2.37679   0.56063   0.15007
O    -2.45339   0.77913  -1.04997
C    -0.49527  -1.22926   0.21811
C    -0.65673  -1.63587  -1.23255
C    -0.11779  -2.38237   1.13011
H     2.45034  -1.72771  -0.53079
H     2.57794  -1.58249   1.25263
H     3.44589  -0.43587   0.18335
H    -1.52392  -0.34524   1.89962
H    -3.09930   1.03790   0.85165
H    -0.94437  -0.80455  -1.88182
H    -1.43771  -2.41649  -1.31934
H     0.28022  -2.08047  -1.59853
H     0.69266  -2.98521   0.69358
H    -0.98343  -3.05670   1.26440
H     0.18714  -2.02714   2.12314
24

C     2.51328  -1.02526   0.30539
C     1.29977  -0.16714   0.28592
O     1.02119   0.55943   1.42648
N    -0.01917   1.37882   1.12322
O     0.19385   1.72166  -0.21734
C     0.99763   0.75926  -0.81077
O     1.26359   0.76546  -1.98493
C    -1.33693  -0.22672   0.82696
C    -2.37692   0.56140   0.15016
O    -2.45296   0.77819  -1.04937
C    -0.47090  -1.21670   0.21736
C    -0.65482  -1.63416  -1.23087
C    -0.11782  -2.38015   1.13066
H     2.45209  -1.72795  -0.53163
H     2.57800  -1.58319   1.25170
H     3.44292  -0.43291   0.18379
H    -1.52356  -0.34473   1.89960
H    -3.10102   1.03584   0.85143
H    -0.94337  -0.80451  -1.88219
H    -1.43929  -2.41416  -1.31544
H     0.27892  -2.08255  -1.59980
H     0.69126  -2.98704   0.69441
H    -0.98608  -3.05292   1.26315
H     0.18760  -2.02800   2.12371
24

C     2.50968  -1.02594   0.30326
C     1.28141  -0.18359   0.28391
O     1.02250   0.55959   1.42934
N    -0.03459   1.36296   1.12162
O     0.19332   1.72231  -0.22051
C     0.99457   0.75828  -0.81126
O     1.26545   0.76654  -1.98342
C    -1.32260  -0.21039   0.82943
C    -2.37705   0.56216   0.15026
O    -2.45254   0.77726  -1.04878
C    -0.44653  -1.20413   0.21662
C    -0.65291  -1.63244  -1.22919
C    -0.11785  -2.37794   1.13120
H     2.45383  -1.72818  -0.53247
H     2.57807  -1.58390   1.25077
H     3.43996  -0.42994   0.18423
H    -1.52319  -0.34421   1.89957
H    -3.10275   1.03377   0.85121
H    -0.94237  -0.80448  -1.88255
H    -1.44086  -2.41184  -1.31154
H     0.27763  -2.08462  -1.60106
H     0.68986  -2.98887   0.69524
H    -0.98872  -3.04915   1.26189
H     0.18806  -2.02886   2.12429
24

C     2.50608  -1.02662   0.30114
C     1.26304  -0.20005   0.28190
O     1.02382   0.55976   1.43220
N    -0.05001   1.34710   1.12002
O     0.19278   1.72295  -0.22368
C     0.99150   0.75730  -0.81175
O     1.26732   0.76761  -1.98192
C    -1.30827  -0.19405   0.83190
C    -2.37717   0.56293   0.15035
O    -2.45211   0.77633  -1.04819
C    -0.42216  -1.19156   0.21587
C    -0.65100  -1.63072  -1.22751
C    -0.11788  -2.37572   1.13175
H     2.45558  -1.72841  -0.53331
H     2.57813  -1.58460   1.24984
H     3.43699  -0.42698   0.18468
H    -1.52282  -0.34370   1.89954
H    -3.10448   1.03171   0.85098
H    -0.94136  -0.80445  -1.88292
H    -1.44244  -2.40952  -1.30764
H     0.27634  -2.08669  -1.60232
H     0.68846  -2.99069   0.69606
H    -0.99136  -3.04537   1.26064
H     0.18852  -2.02973   2.12487
24

C     2.50248  -1.02730   0.29901
C     1.24468  -0.21650   0.27989
O     1.02513   0.55993   1.43507
N    -0.06544   1.33124   1.11842
O     0.19224   1.72359  -0.22686
C     0.98844   0.75632  -0.81223
O     1.26918   0.76869  -1.98041
C    -1.29394  -0.17772   0.83437
C    -2.37730   0.56370   0.15045
O    -2.45169   0.77540  -1.04760
C    -0.39778  -1.17899   0.21512
C    -0.64909  -1.62901  -1.22583
C    -0.11791  -2.37351   1.13230
H     2.45733  -1.72864  -0.53415
H     2.57819  -1.58530   1.24891
H     3.43402  -0.42402   0.18512
H    -1.52246  -0.34318   1.89951
H    -3.10620   1.02964   0.85076
H    -0.94036  -0.80441  -1.88329
H    -1.44402  -2.40719  -1.30374
H     0.27504  -2.08877  -1.60359
H     0.68706  -2.99252   0.69689
H    -0.99400  -3.04159   1.25938
H     0.18897  -2.03059   2.12544
24

C     2.49888  -1.02797   0.29689
C     1.22631  -0.23295   0.27788
O     1.02644   0.56009   1.43793
N    -0.08086   1.31538   1.11681
O     0.19170   1.72424  -0.23003
C     0.98538   0.75534  -0.81272
O     1.27105   0.76976  -1.97890
C    -1.27961  -0.16139   0.83684
C    -2.37742   0.56446   0.15054
O    -2.45126   0.77446  -1.04701
C    -0.37341  -1.16643   0.21438
C    -0.64718  -1.62729  -1.22415
C    -0.11794  -2.37130   1.13284
H     2.45908  -1.72887  -0.53499
H     2.57826  -1.58601   1.24799
H     3.43105  -0.42105   0.18556
H    -1.52209  -0.34267   1.89949
H    -3.10793   1.02758   0.85054
H    -0.93936  -0.80438  -1.88366
H    -1.44560  -2.40487  -1.29984
H     0.27375  -2.09084  -1.60485
H     0.68566  -2.99435   0.69772
H    -0.99664  -3.03781   1.25813
H     0.18943  -2.03145   2.12602
24

C     2.49529  -1.02865   0.29476
C     1.20795  -0.24940   0.27587
O     1.02775   0.56026   1.44080
N    -0.09628   1.29953   1.11521
O     0.19116   1.72488  -0.23320
C     0.98232   0.75436  -0.81321
O     1.27291   0.77084  -1.97740
C    -1.26527  -0.14505   0.83931
C    -2.37755   0.56523   0.15064
O    -2.45083   0.77353  -1.04642
C    -0.34904  -1.15386   0.21363
C    -0.64527  -1.62557  -1.22247
C    -0.11797  -2.36908   1.13339
H     2.46083  -1.72910  -0.53583
H     2.57832  -1.58671   1.24706
H     3.42808  -0.41809   0.18600
H    -1.52172  -0.34215   1.89946
H    -3.10966   1.02551   0.85032
H    -0.93836  -0.80435  -1.88402
H    -1.44717  -2.40254  -1.29594
H     0.27245  -2.09291  -1.60612
H     0.68425  -2.99618   0.69854
H    -0.99929  -3.03404   1.25688
H     0.18989  -2.03231   2.12659
24

C     2.49169  -1.02933   0.29264
C     1.18958  -0.26586   0.27386
O     1.02906   0.56043   1.44366
N    -0.11170   1.28367   1.11361
O     0.19063   1.72553  -0.23638
C     0.97925   0.75338  -0.81369
O     1.27477   0.77191  -1.97589
C    -1.25094  -0.12872   0.84178
C    -2.37767   0.56600   0.15073
O    -2.45041   0.77260  -1.04583
C    -0.32467  -1.14129   0.21288
C    -0.64336  -1.62386  -1.22079
C    -0.11800  -2.36687   1.13393
H     2.46257  -1.72934  -0.53667
H     2.57838  -1.58741   1.24613
H     3.42512  -0.41513   0.18645
H    -1.52136  -0.34164   1.89943
H    -3.11138   1.02345   0.85010
H    -0.93736  -0.80431  -1.88439
H    -1.44875  -2.40022  -1.29204
H     0.27116  -2.09498  -1.60738
H     0.68285  -2.99800   0.69937
H    -1.00193  -3.03026   1.25562
H     0.19035  -2.03317   2.12717
