12

N -4.897242637 -1.861994772 -0.053546448
C -2.477496334 -1.149810834 -0.256726834
C -0.325773685 -0.466142882 -0.518611090
C 2.246956663 0.476617823 -0.786380576
O 4.070899418 -0.942878018 0.567465499
C 2.318740499 3.209043615 0.161851206
O 2.299884982 5.020160213 -1.186430343
H -5.710140474 -1.669409815 1.653274483
H -5.410441778 -3.430362859 -0.996442041
H 2.786008372 0.498603898 -2.780677606
H 3.197340107 -2.049475691 1.705409873
H 2.417243248 3.366676953 2.251347820

