16

C -1.588453476 -0.899431986 -2.167244992
C 0.416142089 -0.267201529 -0.256325815
C 3.037360466 -1.303879808 -0.705677384
C 0.300941947 2.254162378 1.020592249
C -0.659605861 0.544205578 3.100100677
O -3.228603301 0.495320914 3.279699662
H -1.531841779 -2.900841114 -2.664303793
H -3.478123003 -0.486439447 -1.444344228
H -1.332240232 0.193690862 -3.901983055
H 4.181172723 -1.140286954 1.004326640
H 3.982157350 -0.233043936 -2.200902639
H 2.986005911 -3.288403117 -1.268799102
H 2.089838956 3.198563761 1.365411463
H -1.093233378 3.563194070 0.249337948
H 0.000739450 -1.482766120 1.932935979
H -4.015393721 1.758708464 2.223367042

