11

O 3.097980046 1.022966048 -1.545115442
C 2.408266992 0.109807544 0.411603496
C 0.134695596 -1.576692671 0.699276542
C -1.757966388 -0.574546359 2.569142779
C -1.979077384 1.823731767 3.248548699
H -0.772392030 3.295962740 2.485851059
H -3.404125750 2.410849322 4.594161804
H -3.036261099 -1.961785086 3.377365546
H -0.728770574 -1.864544409 -1.154073413
H 0.822812682 -3.418421245 1.352912380
H 3.464284709 0.472166856 2.188536347

