13

C 3.758573610 0.105422019 1.234994680
O 1.464433094 -1.174699018 0.744401879
C 0.193124964 -0.268577968 -1.304305544
C -2.396884586 -1.435584875 -1.378599503
C -2.860996295 1.006487031 -0.057397559
H 3.395246059 1.976764019 2.042462294
H 4.854532332 0.319706039 -0.500193554
H 4.804800145 -1.026981168 2.598276478
H -0.603401778 1.974701118 -0.828430516
H -3.231693457 -1.633734866 -3.238386149
H -2.586216908 -3.120983266 -0.227586596
H -4.017714664 2.415628534 -0.994019847
H -2.914849786 0.970128039 1.986538589

