12

C -3.018317186 -0.054357651 0.079600952
C -0.235089130 0.533789408 -0.019538615
C 0.517813965 3.242186879 -0.159585349
O 2.643450249 4.030599572 -0.248070868
C 3.296914311 -2.890551839 0.035553610
C 1.529483098 -1.198908828 0.009260924
H -3.982449993 0.688183812 -1.588489721
H -3.889050752 0.810139044 1.740482131
H -3.342409128 -2.083245097 0.164833100
H -1.112745330 4.565117942 -0.180454124
H 4.108686004 -3.539048095 1.800788791
H 4.021681123 -3.683684879 -1.708361738

