13

N -4.238520317 -0.735692736 0.167139775
C -1.693008564 -0.103678218 -0.001549179
C -0.588877910 2.269465890 0.315709873
C 2.015383161 1.930243043 0.369238236
C 2.449417536 -0.655334740 0.112021302
O 4.626373358 -1.865832768 -0.538049833
N 0.050790453 -1.948476255 -0.214167518
H -4.672437454 -2.338570491 -0.764312619
H -5.420563057 0.684960014 -0.281366784
H -1.591857421 4.026311992 0.593496117
H 3.460503442 3.355339711 0.558085692
H 4.355662985 -2.705788081 -2.125297815
H 1.280502592 -1.902723944 1.842635057

