13

C -2.105532451 -1.503480788 -1.990913419
N -1.876841556 -1.862272845 0.950165180
C -0.185918210 -0.198343878 -0.503022890
C 0.299016599 2.502456082 0.396864180
O 2.940312806 1.974925202 0.684018534
C 2.671690845 -0.503783618 -0.400112544
H -1.233944559 -3.558561596 1.531803814
H -3.752520855 -0.272602839 -2.239277534
H -3.042478071 -1.002514014 2.192793333
H -0.589191605 3.090833139 2.171913617
H -0.050258910 3.933971904 -1.053627988
H 3.420265296 -1.985860215 0.832383294
H 3.546063760 -0.636626905 -2.267086309

