13

C -1.990127368 -1.586845546 -1.777224190
N -1.522048916 -1.917892001 1.512915132
C -0.083666396 -0.325354241 -0.216192927
C 0.273856143 2.481217431 0.323162272
O 2.961357798 2.175320566 0.343025354
C 2.784882417 -0.461328048 -0.306904467
H -2.187163385 -3.416276481 0.047552596
H -3.673563279 -0.387580145 -1.925599155
H -2.941782503 -0.950066518 2.360642303
H -0.455228013 3.170615033 2.132438202
H -0.349753780 3.735190063 -1.198162084
H 3.660599984 -1.680484536 1.110013655
H 3.566254066 -0.851087274 -2.178814518

