15

C -1.891208067 -0.045874916 0.993808027
C -2.676456546 1.262249821 -1.344513852
O -1.150940455 2.727577492 -2.566914697
C 1.217323926 3.225053753 -2.153909138
C 2.485107848 -2.317861020 1.458039092
O 0.590834268 -3.549267129 2.891121308
C -0.149459724 -2.299647783 0.640179496
H -0.965849850 1.305485206 2.284324240
H -3.593239147 -0.727934087 1.941398153
H -4.575556241 1.289760870 -2.081143041
H 2.237470899 2.238490558 -0.693737868
H 2.038112749 4.570194464 -3.438108846
H 3.838685507 -3.550503614 0.529728689
H 3.277318456 -0.635725449 2.334900492
H -0.685335390 -3.574144561 -0.882371615

