15

C -2.404347662 0.139470726 1.358334496
C -2.436079887 0.713741639 -1.394483955
O -0.520477591 1.779955354 -2.559626004
C 1.561203644 2.232684034 -1.265886278
C 2.554460155 -1.325420475 0.324742235
O 1.489636087 -2.500014008 2.464746389
C -0.603527199 -1.966787587 0.958570550
H -1.735390151 1.642456557 2.599601649
H -4.254706275 -0.468822116 2.025643618
H -3.912047623 0.111437811 -2.667512755
H 1.356193001 3.119851528 0.569313594
H 3.080677845 2.911442610 -2.459653861
H 3.131897096 -2.657000908 -1.138452389
H 4.140450410 -0.154047790 0.926594551
H -1.451135507 -3.661095697 0.170872419

