10

O -0.105383374 -2.102522798 -2.175454453
C 0.469711856 0.040243400 -0.782515633
C 2.111339995 -0.586902107 1.502628880
O 3.003842148 1.002683636 2.841434342
C -1.901297296 1.375769015 0.124643444
O -3.954064493 0.607138220 -0.453333978
H -1.928042230 -2.181023268 -2.299154584
H 1.536407168 1.429870740 -1.904701146
H 2.386226474 -2.637189133 1.817539777
H -1.618740249 3.051932314 1.328913369

