10

O -0.376892534 -1.924637019 -2.559087262
C 0.391631340 -0.080329706 -0.882885015
C 1.950774294 -1.066729762 1.295810072
O 3.108416209 0.640068720 2.617124267
C -1.842577458 1.365461201 0.215591125
O -3.960109235 0.861792951 -0.409272557
H -2.203300966 -1.883190186 -2.598917889
H 1.593822774 1.354799310 -1.806998526
H 3.254063071 -1.484141822 3.221821887
H -1.396957833 2.862123082 1.594092173

