9

C -1.785089854 2.417818046 1.162292229
C 0.643212166 1.765175882 -0.127509081
C 2.689754700 0.891238115 1.015695308
H 2.734857001 0.581250994 3.042812685
H 4.394936483 0.452900418 -0.028473807
H 0.691747079 2.044731496 -2.163435077
H -3.346662656 1.296868980 0.406012760
H -1.671921923 2.084214715 3.193474993
H -2.269465796 4.402451564 0.855771244

