13

C -2.094612102 2.552738142 0.923516792
C -0.005325456 1.227165015 -0.539741251
C 1.913657295 0.035385726 0.876069038
O 1.103408741 -3.719263641 -0.026462742
C -1.504865598 -1.072042727 -2.176640842
N -0.841657862 -3.286831564 -1.886106675
H -3.626017581 3.050081554 -0.359245062
H -2.866082455 1.311166422 2.378948118
H -1.387176271 4.265182312 1.828851980
H 0.719989452 2.364371923 -2.091437740
H 1.638389111 -0.415593993 2.851692796
H 3.830745955 -0.080932624 0.176416289
H 2.214309377 -4.996637961 -0.725153884

