10

C -5.214340835 -0.628005540 -1.189438787
C -2.530812840 -0.275823442 -0.540991456
C -0.217084254 -1.018926815 -0.517373395
H 1.195699998 -2.404090471 -0.981720659
C -0.699340660 1.498780623 0.699359973
H -0.672276966 1.663031687 2.753883293
H -0.137459585 3.227812488 -0.271546784
H -6.369628284 -0.600914237 0.521117830
H -5.868035917 0.919056093 -2.389515429
H -5.523073272 -2.411081758 -2.173654565

