14

C -3.632128331 -0.522991569 -1.457228059
C -1.407294049 0.181297509 0.019919225
C 0.761558249 -0.744221693 1.062084815
C 3.604668362 0.238078752 -0.015958473
N 4.750172982 -1.773385835 -0.708338837
O 3.884169211 2.533327914 0.056889392
C -0.627955160 1.760828340 1.997254867
H -5.364550082 0.180039272 -0.592030635
H -3.449218319 0.409803985 -3.297183257
H -3.725788260 -2.551987070 -1.786770047
H 0.933995342 -2.669640965 1.732641129
H 6.435921426 -1.282319847 -1.492894372
H -1.885619315 2.133662404 3.576497043
H 0.942972769 3.112931937 1.616772930

