8

C 3.542491799 -1.542546227 0.326045012
C 1.436403636 -0.995788007 1.496734579
C -0.604683371 -0.461372400 2.629406560
C -2.709463598 0.084412951 3.802871587
H -3.413465835 -1.099988922 5.318761847
H -3.809831940 1.735518104 3.293089052
H 4.641365103 -3.193987279 0.837902787
H 4.248651763 -0.359199860 -1.189649945

