13

C 3.649029399 1.017978720 0.092700515
C 0.991673506 0.120837195 0.024507575
C 0.076948703 -2.273148796 0.005388006
N -2.578510831 -2.119343137 -0.063781526
C -3.149114844 0.346664645 -0.082816246
O -5.115816808 1.752570180 -0.133926723
N -1.072404817 1.735493255 -0.032535849
H 3.984430955 2.184038723 1.760719719
H 4.079874710 2.160299870 -1.569868567
H 4.946199980 -0.580019951 0.141628000
H 1.044571646 -4.062226218 0.033581794
H -3.811199365 -3.556502701 -0.091961764
H -3.009127372 3.274193473 -0.082612571

