10

O -3.536547987 3.090197530 1.181795336
C -1.412416454 2.022916214 2.140843892
C 0.422755091 1.013041187 0.843839286
C 2.263859356 -0.147871787 -0.313653719
N 2.281067523 -2.809876728 -0.785753225
N 0.217792183 -3.687182894 -1.413139823
H -3.559462088 2.851129733 -0.619277972
H -1.360771581 2.106280669 4.186611204
H 4.007134786 0.779159744 -0.862329841
H 0.468949824 -5.603040794 -1.610243454

