10

O -3.648201491 0.988567420 0.492381408
C -1.139314331 0.413906392 0.695039095
C 1.008519942 2.103622240 0.417472853
C 2.871216747 0.273672688 -0.237956657
N 2.001317514 -2.060091964 -0.618247410
N -0.422619730 -2.005597422 -0.218659964
H -3.754607736 2.778483294 0.200849598
H -0.407042774 0.452151633 2.750810239
H 4.863113106 0.603943884 -0.536017414
H -1.434955747 -3.615758560 -0.219084170

