13

C 1.129080500 -1.561516772 1.303575959
C -2.445368136 -1.851879389 -0.719395700
O -3.345395632 0.434940310 0.036301091
C -1.963296772 2.556875338 -0.521669970
N 0.384153051 2.737652907 -0.722196482
C 2.094159021 0.644621297 -0.237750998
H 0.685847770 -1.029187385 3.245157831
H 2.442632739 -3.147361008 1.260598144
H -1.351273289 -1.620870669 -2.473132238
H -0.874224684 -2.769266003 0.879145947
H -3.185275037 4.191959374 -0.736839403
H 3.715887380 1.463217414 0.752777561
H 2.828019497 -0.010383648 -2.053746170

