10

C 5.378930954 1.322440735 -0.518911273
C 3.184176388 0.565101622 -2.131190170
C 0.802829659 0.451698798 -1.368765349
O 0.085788143 1.027757335 1.041874421
H -1.703411790 0.831846820 1.204989495
H -0.704925935 -0.108844691 -2.642580597
H 3.540047155 0.067432666 -4.085670236
H 4.775864017 1.797076859 1.391038758
H 6.346661838 2.964696471 -1.314251947
H 6.769048716 -0.200136453 -0.392936195

