13

C -3.534880152 -0.431049798 -0.428338022
C -1.069989634 -0.017859669 0.990414929
O 0.571042996 -2.186144747 0.675439612
C 2.907611776 -1.412858613 0.023155608
O 4.658624123 -2.804558699 -0.237067711
C 2.799870477 1.441978196 -0.326476531
C 0.272789034 2.342712034 0.386383646
H -4.386275357 -2.206100935 0.170255555
H -4.827319218 1.121222528 -0.039817588
H -3.190898257 -0.520573268 -2.457959948
H -1.468657803 0.169779666 3.028114735
H 4.360886736 2.463881424 0.553639941
H 2.982172054 1.903129895 -2.347978984

