13

C -3.311026503 -0.351314770 -0.576770378
C -1.017242937 -0.011272481 1.100057841
O 0.598882649 -2.232355845 0.895993554
C 2.934172746 -1.540670976 0.223594719
O 4.676246802 -2.939169144 -0.068216883
C 2.867466812 1.308763578 -0.057098906
C 0.522846457 2.312151534 0.585422848
H -4.311121138 -2.081685940 -0.083586687
H -4.576266476 1.255945620 -0.345607740
H -2.750331741 -0.465178989 -2.559650854
H -1.590351914 0.106881965 3.085322754
H 4.578792964 2.370082071 -0.442204889
H 1.452910923 2.131381372 -1.767492044

