13

C 2.198300033 -3.377550513 0.814704661
C 0.769229044 -1.119413436 1.735137155
C -1.149254460 0.031578590 0.598322081
C -2.346234030 -0.646882335 -1.870331374
H -1.499740812 -2.317306310 -2.713036447
H -4.364097059 -1.019619702 -1.612712003
H -2.154492609 0.912345203 -3.214466600
O -2.194061887 2.105280966 1.759358511
H -3.598509990 2.701866597 0.785974115
H 1.362746628 -0.320731234 3.529817330
H 1.481947302 -4.104817904 -0.974172507
H 2.107721151 -4.918721057 2.187962305
H 4.198135736 -2.932091080 0.544977758

