27

C    -4.37009   1.09550   1.32782
N    -2.94641   1.18204   1.06962
C    -2.37166   0.39366   0.12861
O    -3.04825  -0.31043  -0.61607
C    -0.84025   0.35257   0.15524
Br   -0.06674   2.01208   0.77477
C    -0.98594  -1.17618   1.73477
C    -0.69872  -0.37701   2.89484
N    -0.71361   0.36277   3.79449
O    -0.12726  -2.08949   1.19801
C     0.92999  -1.58616   0.43743
C     2.04397  -0.91783   1.23833
O     1.90198  -0.37406   2.30916
O     3.17916  -0.97820   0.56073
C     4.26856  -0.17213   1.04813
C     0.08809  -0.45495  -0.67826
Br    1.45959   0.52926  -1.73051
Br   -0.80733  -1.65898  -1.96771
H    -4.93852   1.29739   0.41475
H    -4.63026   1.84449   2.08697
H    -4.66162   0.09701   1.70234
H    -2.36048   1.65368   1.75394
H    -1.98246  -1.70990   1.84797
H     1.33920  -2.49222  -0.12457
H     5.08555  -0.30587   0.33344
H     4.57278  -0.48941   2.05159
H     3.95610   0.88651   1.07536
27

C    -4.36962   1.09523   1.32842
N    -2.94571   1.18056   1.07085
C    -2.37190   0.39351   0.12875
O    -3.04851  -0.31180  -0.61485
C    -0.84228   0.36385   0.14038
Br   -0.06597   2.01428   0.77390
C    -0.98481  -1.19033   1.74790
C    -0.69904  -0.37965   2.89646
N    -0.71453   0.36312   3.79383
O    -0.12736  -2.08484   1.19523
C     0.93936  -1.60326   0.45385
C     2.04522  -0.92186   1.24191
O     1.90225  -0.37181   2.30997
O     3.18008  -0.97927   0.56169
C     4.26809  -0.17160   1.04787
C     0.07307  -0.43589  -0.69829
Br    1.46066   0.52831  -1.73042
Br   -0.80732  -1.65816  -1.96783
H    -4.93816   1.29737   0.41479
H    -4.63008   1.84447   2.08710
H    -4.66169   0.09698   1.70245
H    -2.36017   1.65371   1.75388
H    -1.98181  -1.71441   1.85059
H     1.33932  -2.49478  -0.12328
H     5.08547  -0.30559   0.33339
H     4.57289  -0.48887   2.05159
H     3.95581   0.88664   1.07514
27

C    -4.36916   1.09496   1.32901
N    -2.94502   1.17909   1.07207
C    -2.37213   0.39336   0.12889
O    -3.04877  -0.31317  -0.61364
C    -0.84432   0.37512   0.12552
Br   -0.06519   2.01647   0.77304
C    -0.98369  -1.20447   1.76103
C    -0.69936  -0.38228   2.89808
N    -0.71544   0.36347   3.79317
O    -0.12747  -2.08019   1.19246
C     0.94873  -1.62037   0.47026
C     2.04647  -0.92590   1.24548
O     1.90251  -0.36957   2.31079
O     3.18099  -0.98033   0.56265
C     4.26761  -0.17106   1.04762
C     0.05805  -0.41682  -0.71831
Br    1.46174   0.52735  -1.73033
Br   -0.80732  -1.65733  -1.96795
H    -4.93780   1.29735   0.41483
H    -4.62989   1.84445   2.08722
H    -4.66176   0.09696   1.70256
H    -2.35986   1.65373   1.75381
H    -1.98116  -1.71893   1.85322
H     1.33943  -2.49735  -0.12200
H     5.08539  -0.30531   0.33333
H     4.57300  -0.48832   2.05160
H     3.95552   0.88677   1.07492
27

C    -4.36870   1.09469   1.32961
N    -2.94433   1.17762   1.07330
C    -2.37236   0.39321   0.12904
O    -3.04903  -0.31454  -0.61243
C    -0.84635   0.38640   0.11066
Br   -0.06441   2.01866   0.77218
C    -0.98256  -1.21862   1.77417
C    -0.69968  -0.38491   2.89970
N    -0.71636   0.36381   3.79252
O    -0.12758  -2.07554   1.18968
C     0.95810  -1.63747   0.48667
C     2.04772  -0.92993   1.24906
O     1.90278  -0.36733   2.31160
O     3.18191  -0.98139   0.56361
C     4.26714  -0.17053   1.04737
C     0.04303  -0.39776  -0.73834
Br    1.46281   0.52639  -1.73025
Br   -0.80731  -1.65651  -1.96808
H    -4.93744   1.29733   0.41487
H    -4.62970   1.84443   2.08735
H    -4.66183   0.09693   1.70267
H    -2.35956   1.65376   1.75374
H    -1.98052  -1.72344   1.85584
H     1.33955  -2.49991  -0.12071
H     5.08531  -0.30504   0.33328
H     4.57311  -0.48778   2.05160
H     3.95524   0.88690   1.07469
27

C    -4.36823   1.09442   1.33020
N    -2.94363   1.17615   1.07452
C    -2.37260   0.39305   0.12918
O    -3.04929  -0.31591  -0.61122
C    -0.84839   0.39768   0.09580
Br   -0.06364   2.02085   0.77131
C    -0.98144  -1.23276   1.78730
C    -0.69999  -0.38754   2.90132
N    -0.71728   0.36416   3.79186
O    -0.12768  -2.07088   1.18691
C     0.96747  -1.65458   0.50309
C     2.04898  -0.93396   1.25263
O     1.90305  -0.36508   2.31242
O     3.18283  -0.98245   0.56458
C     4.26666  -0.16999   1.04711
C     0.02801  -0.37870  -0.75836
Br    1.46389   0.52543  -1.73016
Br   -0.80730  -1.65568  -1.96820
H    -4.93708   1.29731   0.41491
H    -4.62952   1.84440   2.08748
H    -4.66190   0.09690   1.70278
H    -2.35925   1.65378   1.75368
H    -1.97987  -1.72796   1.85847
H     1.33966  -2.50248  -0.11942
H     5.08523  -0.30476   0.33323
H     4.57322  -0.48724   2.05160
H     3.95495   0.88703   1.07447
27

C    -4.36777   1.09415   1.33080
N    -2.94294   1.17468   1.07574
C    -2.37283   0.39290   0.12933
O    -3.04955  -0.31728  -0.61001
C    -0.85043   0.40896   0.08094
Br   -0.06286   2.02304   0.77045
C    -0.98032  -1.24690   1.80043
C    -0.70031  -0.39017   2.90294
N    -0.71819   0.36451   3.79120
O    -0.12779  -2.06623   1.18413
C     0.97684  -1.67168   0.51950
C     2.05023  -0.93800   1.25621
O     1.90331  -0.36284   2.31323
O     3.18374  -0.98351   0.56554
C     4.26619  -0.16946   1.04686
C     0.01299  -0.35963  -0.77838
Br    1.46496   0.52447  -1.73007
Br   -0.80729  -1.65485  -1.96832
H    -4.93672   1.29729   0.41494
H    -4.62933   1.84438   2.08760
H    -4.66197   0.09687   1.70289
H    -2.35894   1.65381   1.75361
H    -1.97922  -1.73247   1.86109
H     1.33978  -2.50504  -0.11814
H     5.08515  -0.30448   0.33318
H     4.57332  -0.48670   2.05160
H     3.95466   0.88716   1.07424
27

C    -4.36731   1.09389   1.33139
N    -2.94224   1.17321   1.07697
C    -2.37306   0.39275   0.12947
O    -3.04981  -0.31866  -0.60880
C    -0.85246   0.42024   0.06608
Br   -0.06209   2.02523   0.76959
C    -0.97919  -1.26105   1.81357
C    -0.70063  -0.39281   2.90456
N    -0.71911   0.36486   3.79054
O    -0.12790  -2.06158   1.18135
C     0.98621  -1.68879   0.53591
C     2.05148  -0.94203   1.25978
O     1.90358  -0.36060   2.31404
O     3.18466  -0.98457   0.56650
C     4.26571  -0.16892   1.04661
C    -0.00203  -0.34057  -0.79841
Br    1.46604   0.52351  -1.72998
Br   -0.80728  -1.65403  -1.96844
H    -4.93636   1.29727   0.41498
H    -4.62914   1.84436   2.08773
H    -4.66204   0.09685   1.70300
H    -2.35863   1.65384   1.75355
H    -1.97857  -1.73699   1.86372
H     1.33989  -2.50760  -0.11685
H     5.08507  -0.30421   0.33313
H     4.57343  -0.48616   2.05160
H     3.95438   0.88729   1.07402
27

C    -4.36684   1.09362   1.33199
N    -2.94155   1.17174   1.07819
C    -2.37330   0.39260   0.12961
O    -3.05007  -0.32003  -0.60758
C    -0.85450   0.43152   0.05122
Br   -0.06131   2.02743   0.76872
C    -0.97807  -1.27519   1.82670
C    -0.70095  -0.39544   2.90618
N    -0.72002   0.36520   3.78989
O    -0.12801  -2.05693   1.17858
C     0.99558  -1.70590   0.55233
C     2.05273  -0.94606   1.26336
O     1.90385  -0.35835   2.31486
O     3.18558  -0.98564   0.56746
C     4.26524  -0.16839   1.04635
C    -0.01705  -0.32150  -0.81843
Br    1.46711   0.52255  -1.72989
Br   -0.80728  -1.65320  -1.96857
H    -4.93600   1.29725   0.41502
H    -4.62895   1.84434   2.08786
H    -4.66211   0.09682   1.70311
H    -2.35832   1.65386   1.75348
H    -1.97792  -1.74150   1.86634
H     1.34001  -2.51017  -0.11556
H     5.08499  -0.30393   0.33308
H     4.57354  -0.48562   2.05160
H     3.95409   0.88742   1.07380
27

C    -4.36638   1.09335   1.33258
N    -2.94086   1.17026   1.07942
C    -2.37353   0.39244   0.12976
O    -3.05032  -0.32140  -0.60637
C    -0.85653   0.44280   0.03636
Br   -0.06053   2.02962   0.76786
C    -0.97694  -1.28933   1.83984
C    -0.70126  -0.39807   2.90780
N    -0.72094   0.36555   3.78923
O    -0.12811  -2.05228   1.17580
C     1.00495  -1.72300   0.56874
C     2.05398  -0.95009   1.26693
O     1.90412  -0.35611   2.31567
O     3.18649  -0.98670   0.56842
C     4.26476  -0.16785   1.04610
C    -0.03207  -0.30244  -0.83845
Br    1.46819   0.52160  -1.72980
Br   -0.80727  -1.65238  -1.96869
H    -4.93564   1.29723   0.41506
H    -4.62877   1.84431   2.08798
H    -4.66218   0.09679   1.70322
H    -2.35801   1.65389   1.75342
H    -1.97727  -1.74601   1.86897
H     1.34012  -2.51273  -0.11428
H     5.08491  -0.30365   0.33303
H     4.57365  -0.48508   2.05160
H     3.95380   0.88755   1.07357
27

C    -4.36592   1.09308   1.33318
N    -2.94016   1.16879   1.08064
C    -2.37376   0.39229   0.12990
O    -3.05058  -0.32277  -0.60516
C    -0.85857   0.45408   0.02150
Br   -0.05976   2.03181   0.76700
C    -0.97582  -1.30348   1.85297
C    -0.70158  -0.40070   2.90942
N    -0.72185   0.36590   3.78857
O    -0.12822  -2.04763   1.17303
C     1.01432  -1.74011   0.58515
C     2.05524  -0.95413   1.27050
O     1.90438  -0.35387   2.31649
O     3.18741  -0.98776   0.56938
C     4.26429  -0.16732   1.04585
C    -0.04709  -0.28338  -0.85848
Br    1.46926   0.52064  -1.72971
Br   -0.80726  -1.65155  -1.96881
H    -4.93528   1.29722   0.41509
H    -4.62858   1.84429   2.08811
H    -4.66225   0.09676   1.70333
H    -2.35770   1.65392   1.75335
H    -1.97662  -1.75053   1.87159
H     1.34024  -2.51529  -0.11299
H     5.08483  -0.30338   0.33298
H     4.57375  -0.48454   2.05160
H     3.95352   0.88768   1.07335
27

C    -4.36546   1.09281   1.33378
N    -2.93947   1.16732   1.08187
C    -2.37399   0.39214   0.13004
O    -3.05084  -0.32414  -0.60395
C    -0.86061   0.46535   0.00664
Br   -0.05898   2.03400   0.76614
C    -0.97470  -1.31762   1.86610
C    -0.70190  -0.40334   2.91104
N    -0.72277   0.36625   3.78792
O    -0.12833  -2.04298   1.17025
C     1.02369  -1.75721   0.60157
C     2.05649  -0.95816   1.27408
O     1.90465  -0.35162   2.31730
O     3.18833  -0.98882   0.57034
C     4.26381  -0.16678   1.04559
C    -0.06211  -0.26431  -0.87850
Br    1.47034   0.51968  -1.72963
Br   -0.80725  -1.65073  -1.96893
H    -4.93492   1.29720   0.41513
H    -4.62839   1.84427   2.08824
H    -4.66232   0.09674   1.70344
H    -2.35739   1.65394   1.75329
H    -1.97597  -1.75504   1.87422
H     1.34035  -2.51786  -0.11171
H     5.08475  -0.30310   0.33293
H     4.57386  -0.48400   2.05160
H     3.95323   0.88781   1.07313
27

C    -4.36499   1.09254   1.33437
N    -2.93877   1.16585   1.08309
C    -2.37423   0.39199   0.13019
O    -3.05110  -0.32551  -0.60274
C    -0.86264   0.47663  -0.00822
Br   -0.05821   2.03619   0.76527
C    -0.97357  -1.33177   1.87924
C    -0.70222  -0.40597   2.91266
N    -0.72369   0.36659   3.78726
O    -0.12844  -2.03832   1.16748
C     1.03306  -1.77432   0.61798
C     2.05774  -0.96219   1.27765
O     1.90492  -0.34938   2.31811
O     3.18924  -0.98988   0.57130
C     4.26334  -0.16624   1.04534
C    -0.07713  -0.24525  -0.89853
Br    1.47141   0.51872  -1.72954
Br   -0.80724  -1.64990  -1.96906
H    -4.93456   1.29718   0.41517
H    -4.62821   1.84425   2.08836
H    -4.66239   0.09671   1.70355
H    -2.35708   1.65397   1.75322
H    -1.97532  -1.75956   1.87684
H     1.34047  -2.52042  -0.11042
H     5.08467  -0.30282   0.33288
H     4.57397  -0.48346   2.05161
H     3.95294   0.88794   1.07290
27

C    -4.36453   1.09228   1.33497
N    -2.93808   1.16438   1.08432
C    -2.37446   0.39183   0.13033
O    -3.05136  -0.32688  -0.60153
C    -0.86468   0.48791  -0.02308
Br   -0.05743   2.03838   0.76441
C    -0.97245  -1.34591   1.89237
C    -0.70253  -0.40860   2.91428
N    -0.72460   0.36694   3.78660
O    -0.12854  -2.03367   1.16470
C     1.04243  -1.79142   0.63439
C     2.05899  -0.96623   1.28123
O     1.90518  -0.34713   2.31893
O     3.19016  -0.99094   0.57227
C     4.26286  -0.16571   1.04509
C    -0.09215  -0.22619  -0.91855
Br    1.47249   0.51776  -1.72945
Br   -0.80724  -1.64908  -1.96918
H    -4.93420   1.29716   0.41521
H    -4.62802   1.84422   2.08849
H    -4.66246   0.09668   1.70366
H    -2.35677   1.65399   1.75316
H    -1.97468  -1.76407   1.87947
H     1.34058  -2.52299  -0.10913
H     5.08459  -0.30255   0.33283
H     4.57408  -0.48292   2.05161
H     3.95265   0.88807   1.07268
27

C    -4.36407   1.09201   1.33556
N    -2.93739   1.16291   1.08554
C    -2.37469   0.39168   0.13048
O    -3.05162  -0.32825  -0.60032
C    -0.86671   0.49919  -0.03794
Br   -0.05665   2.04058   0.76355
C    -0.97132  -1.36005   1.90551
C    -0.70285  -0.41123   2.91590
N    -0.72552   0.36729   3.78594
O    -0.12865  -2.02902   1.16193
C     1.05180  -1.80853   0.65081
C     2.06025  -0.97026   1.28480
O     1.90545  -0.34489   2.31974
O     3.19107  -0.99200   0.57323
C     4.26239  -0.16517   1.04483
C    -0.10717  -0.20712  -0.93857
Br    1.47356   0.51680  -1.72936
Br   -0.80723  -1.64825  -1.96930
H    -4.93384   1.29714   0.41524
H    -4.62783   1.84420   2.08862
H    -4.66253   0.09665   1.70377
H    -2.35646   1.65402   1.75309
H    -1.97403  -1.76859   1.88209
H     1.34070  -2.52555  -0.10785
H     5.08451  -0.30227   0.33278
H     4.57419  -0.48238   2.05161
H     3.95237   0.88820   1.07245
27

C    -4.36360   1.09174   1.33616
N    -2.93669   1.16143   1.08676
C    -2.37493   0.39153   0.13062
O    -3.05188  -0.32963  -0.59910
C    -0.86875   0.51047  -0.05280
Br   -0.05588   2.04277   0.76268
C    -0.97020  -1.37420   1.91864
C    -0.70317  -0.41386   2.91752
N    -0.72643   0.36764   3.78529
O    -0.12876  -2.02437   1.15915
C     1.06117  -1.82563   0.66722
C     2.06150  -0.97429   1.28838
O     1.90572  -0.34265   2.32056
O     3.19199  -0.99307   0.57419
C     4.26192  -0.16464   1.04458
C    -0.12219  -0.18806  -0.95860
Br    1.47464   0.51584  -1.72927
Br   -0.80722  -1.64743  -1.96942
H    -4.93348   1.29712   0.41528
H    -4.62765   1.84418   2.08875
H    -4.66260   0.09663   1.70388
H    -2.35615   1.65405   1.75302
H    -1.97338  -1.77310   1.88472
H     1.34081  -2.52811  -0.10656
H     5.08443  -0.30199   0.33273
H     4.57429  -0.48183   2.05161
H     3.95208   0.88833   1.07223
27

C    -4.36314   1.09147   1.33675
N    -2.93600   1.15996   1.08799
C    -2.37516   0.39138   0.13076
O    -3.05214  -0.33100  -0.59789
C    -0.87079   0.52175  -0.06766
Br   -0.05510   2.04496   0.76182
C    -0.96908  -1.38834   1.93177
C    -0.70349  -0.41650   2.91914
N    -0.72735   0.36798   3.78463
O    -0.12887  -2.01972   1.15637
C     1.07054  -1.84274   0.68363
C     2.06275  -0.97833   1.29195
O     1.90598  -0.34040   2.32137
O     3.19291  -0.99413   0.57515
C     4.26144  -0.16410   1.04433
C    -0.13721  -0.16899  -0.97862
Br    1.47571   0.51489  -1.72918
Br   -0.80721  -1.64660  -1.96955
H    -4.93312   1.29710   0.41532
H    -4.62746   1.84416   2.08887
H    -4.66267   0.09660   1.70399
H    -2.35584   1.65407   1.75296
H    -1.97273  -1.77762   1.88734
H     1.34093  -2.53068  -0.10528
H     5.08435  -0.30172   0.33268
H     4.57440  -0.48129   2.05161
H     3.95179   0.88846   1.07201
27

C    -4.36268   1.09120   1.33735
N    -2.93531   1.15849   1.08921
C    -2.37539   0.39122   0.13091
O    -3.05240  -0.33237  -0.59668
C    -0.87282   0.53303  -0.08252
Br   -0.05433   2.04715   0.76096
C    -0.96795  -1.40248   1.94491
C    -0.70381  -0.41913   2.92076
N    -0.72826   0.36833   3.78397
O    -0.12897  -2.01507   1.15360
C     1.07991  -1.85984   0.70005
C     2.06400  -0.98236   1.29553
O     1.90625  -0.33816   2.32218
O     3.19382  -0.99519   0.57611
C     4.26097  -0.16357   1.04407
C    -0.15223  -0.14993  -0.99864
Br    1.47679   0.51393  -1.72909
Br   -0.80720  -1.64578  -1.96967
H    -4.93276   1.29708   0.41536
H    -4.62727   1.84414   2.08900
H    -4.66274   0.09657   1.70410
H    -2.35553   1.65410   1.75289
H    -1.97208  -1.78213   1.88997
H     1.34104  -2.53324  -0.10399
H     5.08427  -0.30144   0.33263
H     4.57451  -0.48075   2.05161
H     3.95151   0.88859   1.07178
27

C    -4.36221   1.09093   1.33794
N    -2.93461   1.15702   1.09044
C    -2.37563   0.39107   0.13105
O    -3.05266  -0.33374  -0.59547
C    -0.87486   0.54431  -0.09738
Br   -0.05355   2.04934   0.76009
C    -0.96683  -1.41663   1.95804
C    -0.70412  -0.42176   2.92238
N    -0.72918   0.36868   3.78331
O    -0.12908  -2.01042   1.15082
C     1.08928  -1.87695   0.71646
C     2.06526  -0.98639   1.29910
O     1.90652  -0.33592   2.32300
O     3.19474  -0.99625   0.57707
C     4.26049  -0.16303   1.04382
C    -0.16725  -0.13087  -1.01867
Br    1.47786   0.51297  -1.72901
Br   -0.80720  -1.64495  -1.96979
H    -4.93240   1.29706   0.41539
H    -4.62708   1.84411   2.08913
H    -4.66281   0.09654   1.70421
H    -2.35522   1.65412   1.75283
H    -1.97143  -1.78665   1.89259
H     1.34116  -2.53580  -0.10270
H     5.08419  -0.30116   0.33258
H     4.57462  -0.48021   2.05161
H     3.95122   0.88872   1.07156
27

C    -4.36175   1.09067   1.33854
N    -2.93392   1.15555   1.09166
C    -2.37586   0.39092   0.13119
O    -3.05292  -0.33511  -0.59426
C    -0.87690   0.55558  -0.11224
Br   -0.05277   2.05154   0.75923
C    -0.96570  -1.43077   1.97117
C    -0.70444  -0.42439   2.92400
N    -0.73010   0.36903   3.78266
O    -0.12919  -2.00576   1.14805
C     1.09865  -1.89406   0.73287
C     2.06651  -0.99042   1.30268
O     1.90679  -0.33367   2.32381
O     3.19566  -0.99731   0.57803
C     4.26002  -0.16250   1.04357
C    -0.18227  -0.11180  -1.03869
Br    1.47894   0.51201  -1.72892
Br   -0.80719  -1.64412  -1.96992
H    -4.93204   1.29704   0.41543
H    -4.62690   1.84409   2.08925
H    -4.66288   0.09651   1.70432
H    -2.35491   1.65415   1.75276
H    -1.97078  -1.79116   1.89522
H     1.34127  -2.53837  -0.10142
H     5.08411  -0.30088   0.33253
H     4.57473  -0.47967   2.05161
H     3.95093   0.88885   1.07133
27

C    -4.36129   1.09040   1.33913
N    -2.93322   1.15408   1.09289
C    -2.37609   0.39077   0.13134
O    -3.05317  -0.33648  -0.59305
C    -0.87893   0.56686  -0.12710
Br   -0.05200   2.05373   0.75837
C    -0.96458  -1.44492   1.98431
C    -0.70476  -0.42703   2.92562
N    -0.73101   0.36937   3.78200
O    -0.12929  -2.00111   1.14527
C     1.10802  -1.91116   0.74929
C     2.06776  -0.99446   1.30625
O     1.90705  -0.33143   2.32463
O     3.19657  -0.99837   0.57900
C     4.25954  -0.16196   1.04331
C    -0.19729  -0.09274  -1.05872
Br    1.48001   0.51105  -1.72883
Br   -0.80718  -1.64330  -1.97004
H    -4.93168   1.29702   0.41547
H    -4.62671   1.84407   2.08938
H    -4.66295   0.09649   1.70443
H    -2.35460   1.65418   1.75270
H    -1.97013  -1.79567   1.89784
H     1.34139  -2.54093  -0.10013
H     5.08403  -0.30061   0.33247
H     4.57483  -0.47913   2.05161
H     3.95065   0.88898   1.07111
27

C    -4.36083   1.09013   1.33973
N    -2.93253   1.15260   1.09411
C    -2.37632   0.39061   0.13148
O    -3.05343  -0.33785  -0.59183
C    -0.88097   0.57814  -0.14196
Br   -0.05122   2.05592   0.75750
C    -0.96346  -1.45906   1.99744
C    -0.70508  -0.42966   2.92724
N    -0.73193   0.36972   3.78134
O    -0.12940  -1.99646   1.14250
C     1.11739  -1.92827   0.76570
C     2.06901  -0.99849   1.30982
O     1.90732  -0.32919   2.32544
O     3.19749  -0.99944   0.57996
C     4.25907  -0.16143   1.04306
C    -0.21231  -0.07367  -1.07874
Br    1.48109   0.51009  -1.72874
Br   -0.80717  -1.64247  -1.97016
H    -4.93132   1.29700   0.41551
H    -4.62652   1.84405   2.08951
H    -4.66302   0.09646   1.70454
H    -2.35429   1.65420   1.75263
H    -1.96948  -1.80019   1.90047
H     1.34150  -2.54349  -0.09884
H     5.08395  -0.30033   0.33242
H     4.57494  -0.47859   2.05161
H     3.95036   0.88911   1.07089
27

C    -4.36129   1.09040   1.33913
N    -2.93322   1.15408   1.09289
C    -2.37609   0.39077   0.13134
O    -3.05317  -0.33648  -0.59305
C    -0.87893   0.56686  -0.12710
Br   -0.05200   2.05373   0.75837
C    -0.96458  -1.44492   1.98431
C    -0.70476  -0.42703   2.92562
N    -0.73101   0.36937   3.78200
O    -0.12929  -2.00111   1.14527
C     1.10802  -1.91116   0.74929
C     2.06776  -0.99446   1.30625
O     1.90705  -0.33143   2.32463
O     3.19657  -0.99837   0.57900
C     4.25954  -0.16196   1.04331
C    -0.19729  -0.09274  -1.05872
Br    1.48001   0.51105  -1.72883
Br   -0.80718  -1.64330  -1.97004
H    -4.93168   1.29702   0.41547
H    -4.62671   1.84407   2.08938
H    -4.66295   0.09649   1.70443
H    -2.35460   1.65418   1.75270
H    -1.97013  -1.79567   1.89784
H     1.34139  -2.54093  -0.10013
H     5.08403  -0.30061   0.33247
H     4.57483  -0.47913   2.05161
H     3.95065   0.88898   1.07111
27

C    -4.36175   1.09067   1.33854
N    -2.93392   1.15555   1.09166
C    -2.37586   0.39092   0.13119
O    -3.05292  -0.33511  -0.59426
C    -0.87690   0.55558  -0.11224
Br   -0.05277   2.05154   0.75923
C    -0.96570  -1.43077   1.97117
C    -0.70444  -0.42439   2.92400
N    -0.73010   0.36903   3.78266
O    -0.12919  -2.00576   1.14805
C     1.09865  -1.89406   0.73287
C     2.06651  -0.99042   1.30268
O     1.90679  -0.33367   2.32381
O     3.19566  -0.99731   0.57803
C     4.26002  -0.16250   1.04357
C    -0.18227  -0.11180  -1.03869
Br    1.47894   0.51201  -1.72892
Br   -0.80719  -1.64412  -1.96992
H    -4.93204   1.29704   0.41543
H    -4.62690   1.84409   2.08925
H    -4.66288   0.09651   1.70432
H    -2.35491   1.65415   1.75276
H    -1.97078  -1.79116   1.89522
H     1.34127  -2.53837  -0.10142
H     5.08411  -0.30088   0.33253
H     4.57473  -0.47967   2.05161
H     3.95093   0.88885   1.07133
27

C    -4.36221   1.09093   1.33794
N    -2.93461   1.15702   1.09044
C    -2.37563   0.39107   0.13105
O    -3.05266  -0.33374  -0.59547
C    -0.87486   0.54431  -0.09738
Br   -0.05355   2.04934   0.76009
C    -0.96683  -1.41663   1.95804
C    -0.70412  -0.42176   2.92238
N    -0.72918   0.36868   3.78331
O    -0.12908  -2.01042   1.15082
C     1.08928  -1.87695   0.71646
C     2.06526  -0.98639   1.29910
O     1.90652  -0.33592   2.32300
O     3.19474  -0.99625   0.57707
C     4.26049  -0.16303   1.04382
C    -0.16725  -0.13087  -1.01867
Br    1.47786   0.51297  -1.72901
Br   -0.80720  -1.64495  -1.96979
H    -4.93240   1.29706   0.41539
H    -4.62708   1.84411   2.08913
H    -4.66281   0.09654   1.70421
H    -2.35522   1.65412   1.75283
H    -1.97143  -1.78665   1.89259
H     1.34116  -2.53580  -0.10270
H     5.08419  -0.30116   0.33258
H     4.57462  -0.48021   2.05161
H     3.95122   0.88872   1.07156
27

C    -4.36268   1.09120   1.33735
N    -2.93531   1.15849   1.08921
C    -2.37539   0.39122   0.13091
O    -3.05240  -0.33237  -0.59668
C    -0.87282   0.53303  -0.08252
Br   -0.05433   2.04715   0.76096
C    -0.96795  -1.40248   1.94491
C    -0.70381  -0.41913   2.92076
N    -0.72826   0.36833   3.78397
O    -0.12897  -2.01507   1.15360
C     1.07991  -1.85984   0.70005
C     2.06400  -0.98236   1.29553
O     1.90625  -0.33816   2.32218
O     3.19382  -0.99519   0.57611
C     4.26097  -0.16357   1.04407
C    -0.15223  -0.14993  -0.99864
Br    1.47679   0.51393  -1.72909
Br   -0.80720  -1.64578  -1.96967
H    -4.93276   1.29708   0.41536
H    -4.62727   1.84414   2.08900
H    -4.66274   0.09657   1.70410
H    -2.35553   1.65410   1.75289
H    -1.97208  -1.78213   1.88997
H     1.34104  -2.53324  -0.10399
H     5.08427  -0.30144   0.33263
H     4.57451  -0.48075   2.05161
H     3.95151   0.88859   1.07178
27

C    -4.36314   1.09147   1.33675
N    -2.93600   1.15996   1.08799
C    -2.37516   0.39138   0.13076
O    -3.05214  -0.33100  -0.59789
C    -0.87079   0.52175  -0.06766
Br   -0.05510   2.04496   0.76182
C    -0.96908  -1.38834   1.93177
C    -0.70349  -0.41650   2.91914
N    -0.72735   0.36798   3.78463
O    -0.12887  -2.01972   1.15637
C     1.07054  -1.84274   0.68363
C     2.06275  -0.97833   1.29195
O     1.90598  -0.34040   2.32137
O     3.19291  -0.99413   0.57515
C     4.26144  -0.16410   1.04433
C    -0.13721  -0.16899  -0.97862
Br    1.47571   0.51489  -1.72918
Br   -0.80721  -1.64660  -1.96955
H    -4.93312   1.29710   0.41532
H    -4.62746   1.84416   2.08887
H    -4.66267   0.09660   1.70399
H    -2.35584   1.65407   1.75296
H    -1.97273  -1.77762   1.88734
H     1.34093  -2.53068  -0.10528
H     5.08435  -0.30172   0.33268
H     4.57440  -0.48129   2.05161
H     3.95179   0.88846   1.07201
27

C    -4.36360   1.09174   1.33616
N    -2.93669   1.16143   1.08676
C    -2.37493   0.39153   0.13062
O    -3.05188  -0.32963  -0.59910
C    -0.86875   0.51047  -0.05280
Br   -0.05588   2.04277   0.76268
C    -0.97020  -1.37420   1.91864
C    -0.70317  -0.41386   2.91752
N    -0.72643   0.36764   3.78529
O    -0.12876  -2.02437   1.15915
C     1.06117  -1.82563   0.66722
C     2.06150  -0.97429   1.28838
O     1.90572  -0.34265   2.32056
O     3.19199  -0.99307   0.57419
C     4.26192  -0.16464   1.04458
C    -0.12219  -0.18806  -0.95860
Br    1.47464   0.51584  -1.72927
Br   -0.80722  -1.64743  -1.96942
H    -4.93348   1.29712   0.41528
H    -4.62765   1.84418   2.08875
H    -4.66260   0.09663   1.70388
H    -2.35615   1.65405   1.75302
H    -1.97338  -1.77310   1.88472
H     1.34081  -2.52811  -0.10656
H     5.08443  -0.30199   0.33273
H     4.57429  -0.48183   2.05161
H     3.95208   0.88833   1.07223
27

C    -4.36407   1.09201   1.33556
N    -2.93739   1.16291   1.08554
C    -2.37469   0.39168   0.13048
O    -3.05162  -0.32825  -0.60032
C    -0.86671   0.49919  -0.03794
Br   -0.05665   2.04058   0.76355
C    -0.97132  -1.36005   1.90551
C    -0.70285  -0.41123   2.91590
N    -0.72552   0.36729   3.78594
O    -0.12865  -2.02902   1.16193
C     1.05180  -1.80853   0.65081
C     2.06025  -0.97026   1.28480
O     1.90545  -0.34489   2.31974
O     3.19107  -0.99200   0.57323
C     4.26239  -0.16517   1.04483
C    -0.10717  -0.20712  -0.93857
Br    1.47356   0.51680  -1.72936
Br   -0.80723  -1.64825  -1.96930
H    -4.93384   1.29714   0.41524
H    -4.62783   1.84420   2.08862
H    -4.66253   0.09665   1.70377
H    -2.35646   1.65402   1.75309
H    -1.97403  -1.76859   1.88209
H     1.34070  -2.52555  -0.10785
H     5.08451  -0.30227   0.33278
H     4.57419  -0.48238   2.05161
H     3.95237   0.88820   1.07245
27

C    -4.36453   1.09228   1.33497
N    -2.93808   1.16438   1.08432
C    -2.37446   0.39183   0.13033
O    -3.05136  -0.32688  -0.60153
C    -0.86468   0.48791  -0.02308
Br   -0.05743   2.03838   0.76441
C    -0.97245  -1.34591   1.89237
C    -0.70253  -0.40860   2.91428
N    -0.72460   0.36694   3.78660
O    -0.12854  -2.03367   1.16470
C     1.04243  -1.79142   0.63439
C     2.05899  -0.96623   1.28123
O     1.90518  -0.34713   2.31893
O     3.19016  -0.99094   0.57227
C     4.26286  -0.16571   1.04509
C    -0.09215  -0.22619  -0.91855
Br    1.47249   0.51776  -1.72945
Br   -0.80724  -1.64908  -1.96918
H    -4.93420   1.29716   0.41521
H    -4.62802   1.84422   2.08849
H    -4.66246   0.09668   1.70366
H    -2.35677   1.65399   1.75316
H    -1.97468  -1.76407   1.87947
H     1.34058  -2.52299  -0.10913
H     5.08459  -0.30255   0.33283
H     4.57408  -0.48292   2.05161
H     3.95265   0.88807   1.07268
27

C    -4.36499   1.09254   1.33437
N    -2.93877   1.16585   1.08309
C    -2.37423   0.39199   0.13019
O    -3.05110  -0.32551  -0.60274
C    -0.86264   0.47663  -0.00822
Br   -0.05821   2.03619   0.76527
C    -0.97357  -1.33177   1.87924
C    -0.70222  -0.40597   2.91266
N    -0.72369   0.36659   3.78726
O    -0.12844  -2.03832   1.16748
C     1.03306  -1.77432   0.61798
C     2.05774  -0.96219   1.27765
O     1.90492  -0.34938   2.31811
O     3.18924  -0.98988   0.57130
C     4.26334  -0.16624   1.04534
C    -0.07713  -0.24525  -0.89853
Br    1.47141   0.51872  -1.72954
Br   -0.80724  -1.64990  -1.96906
H    -4.93456   1.29718   0.41517
H    -4.62821   1.84425   2.08836
H    -4.66239   0.09671   1.70355
H    -2.35708   1.65397   1.75322
H    -1.97532  -1.75956   1.87684
H     1.34047  -2.52042  -0.11042
H     5.08467  -0.30282   0.33288
H     4.57397  -0.48346   2.05161
H     3.95294   0.88794   1.07290
27

C    -4.36546   1.09281   1.33378
N    -2.93947   1.16732   1.08187
C    -2.37399   0.39214   0.13004
O    -3.05084  -0.32414  -0.60395
C    -0.86061   0.46535   0.00664
Br   -0.05898   2.03400   0.76614
C    -0.97470  -1.31762   1.86610
C    -0.70190  -0.40334   2.91104
N    -0.72277   0.36625   3.78792
O    -0.12833  -2.04298   1.17025
C     1.02369  -1.75721   0.60157
C     2.05649  -0.95816   1.27408
O     1.90465  -0.35162   2.31730
O     3.18833  -0.98882   0.57034
C     4.26381  -0.16678   1.04559
C    -0.06211  -0.26431  -0.87850
Br    1.47034   0.51968  -1.72963
Br   -0.80725  -1.65073  -1.96893
H    -4.93492   1.29720   0.41513
H    -4.62839   1.84427   2.08824
H    -4.66232   0.09674   1.70344
H    -2.35739   1.65394   1.75329
H    -1.97597  -1.75504   1.87422
H     1.34035  -2.51786  -0.11171
H     5.08475  -0.30310   0.33293
H     4.57386  -0.48400   2.05160
H     3.95323   0.88781   1.07313
27

C    -4.36592   1.09308   1.33318
N    -2.94016   1.16879   1.08064
C    -2.37376   0.39229   0.12990
O    -3.05058  -0.32277  -0.60516
C    -0.85857   0.45408   0.02150
Br   -0.05976   2.03181   0.76700
C    -0.97582  -1.30348   1.85297
C    -0.70158  -0.40070   2.90942
N    -0.72185   0.36590   3.78857
O    -0.12822  -2.04763   1.17303
C     1.01432  -1.74011   0.58515
C     2.05524  -0.95413   1.27050
O     1.90438  -0.35387   2.31649
O     3.18741  -0.98776   0.56938
C     4.26429  -0.16732   1.04585
C    -0.04709  -0.28338  -0.85848
Br    1.46926   0.52064  -1.72971
Br   -0.80726  -1.65155  -1.96881
H    -4.93528   1.29722   0.41509
H    -4.62858   1.84429   2.08811
H    -4.66225   0.09676   1.70333
H    -2.35770   1.65392   1.75335
H    -1.97662  -1.75053   1.87159
H     1.34024  -2.51529  -0.11299
H     5.08483  -0.30338   0.33298
H     4.57375  -0.48454   2.05160
H     3.95352   0.88768   1.07335
27

C    -4.36638   1.09335   1.33258
N    -2.94086   1.17026   1.07942
C    -2.37353   0.39244   0.12976
O    -3.05032  -0.32140  -0.60637
C    -0.85653   0.44280   0.03636
Br   -0.06053   2.02962   0.76786
C    -0.97694  -1.28933   1.83984
C    -0.70126  -0.39807   2.90780
N    -0.72094   0.36555   3.78923
O    -0.12811  -2.05228   1.17580
C     1.00495  -1.72300   0.56874
C     2.05398  -0.95009   1.26693
O     1.90412  -0.35611   2.31567
O     3.18649  -0.98670   0.56842
C     4.26476  -0.16785   1.04610
C    -0.03207  -0.30244  -0.83845
Br    1.46819   0.52160  -1.72980
Br   -0.80727  -1.65238  -1.96869
H    -4.93564   1.29723   0.41506
H    -4.62877   1.84431   2.08798
H    -4.66218   0.09679   1.70322
H    -2.35801   1.65389   1.75342
H    -1.97727  -1.74601   1.86897
H     1.34012  -2.51273  -0.11428
H     5.08491  -0.30365   0.33303
H     4.57365  -0.48508   2.05160
H     3.95380   0.88755   1.07357
27

C    -4.36684   1.09362   1.33199
N    -2.94155   1.17174   1.07819
C    -2.37330   0.39260   0.12961
O    -3.05007  -0.32003  -0.60758
C    -0.85450   0.43152   0.05122
Br   -0.06131   2.02743   0.76872
C    -0.97807  -1.27519   1.82670
C    -0.70095  -0.39544   2.90618
N    -0.72002   0.36520   3.78989
O    -0.12801  -2.05693   1.17858
C     0.99558  -1.70590   0.55233
C     2.05273  -0.94606   1.26336
O     1.90385  -0.35835   2.31486
O     3.18558  -0.98564   0.56746
C     4.26524  -0.16839   1.04635
C    -0.01705  -0.32150  -0.81843
Br    1.46711   0.52255  -1.72989
Br   -0.80728  -1.65320  -1.96857
H    -4.93600   1.29725   0.41502
H    -4.62895   1.84434   2.08786
H    -4.66211   0.09682   1.70311
H    -2.35832   1.65386   1.75348
H    -1.97792  -1.74150   1.86634
H     1.34001  -2.51017  -0.11556
H     5.08499  -0.30393   0.33308
H     4.57354  -0.48562   2.05160
H     3.95409   0.88742   1.07380
27

C    -4.36731   1.09389   1.33139
N    -2.94224   1.17321   1.07697
C    -2.37306   0.39275   0.12947
O    -3.04981  -0.31866  -0.60880
C    -0.85246   0.42024   0.06608
Br   -0.06209   2.02523   0.76959
C    -0.97919  -1.26105   1.81357
C    -0.70063  -0.39281   2.90456
N    -0.71911   0.36486   3.79054
O    -0.12790  -2.06158   1.18135
C     0.98621  -1.68879   0.53591
C     2.05148  -0.94203   1.25978
O     1.90358  -0.36060   2.31404
O     3.18466  -0.98457   0.56650
C     4.26571  -0.16892   1.04661
C    -0.00203  -0.34057  -0.79841
Br    1.46604   0.52351  -1.72998
Br   -0.80728  -1.65403  -1.96844
H    -4.93636   1.29727   0.41498
H    -4.62914   1.84436   2.08773
H    -4.66204   0.09685   1.70300
H    -2.35863   1.65384   1.75355
H    -1.97857  -1.73699   1.86372
H     1.33989  -2.50760  -0.11685
H     5.08507  -0.30421   0.33313
H     4.57343  -0.48616   2.05160
H     3.95438   0.88729   1.07402
27

C    -4.36777   1.09415   1.33080
N    -2.94294   1.17468   1.07574
C    -2.37283   0.39290   0.12933
O    -3.04955  -0.31728  -0.61001
C    -0.85043   0.40896   0.08094
Br   -0.06286   2.02304   0.77045
C    -0.98032  -1.24690   1.80043
C    -0.70031  -0.39017   2.90294
N    -0.71819   0.36451   3.79120
O    -0.12779  -2.06623   1.18413
C     0.97684  -1.67168   0.51950
C     2.05023  -0.93800   1.25621
O     1.90331  -0.36284   2.31323
O     3.18374  -0.98351   0.56554
C     4.26619  -0.16946   1.04686
C     0.01299  -0.35963  -0.77838
Br    1.46496   0.52447  -1.73007
Br   -0.80729  -1.65485  -1.96832
H    -4.93672   1.29729   0.41494
H    -4.62933   1.84438   2.08760
H    -4.66197   0.09687   1.70289
H    -2.35894   1.65381   1.75361
H    -1.97922  -1.73247   1.86109
H     1.33978  -2.50504  -0.11814
H     5.08515  -0.30448   0.33318
H     4.57332  -0.48670   2.05160
H     3.95466   0.88716   1.07424
27

C    -4.36823   1.09442   1.33020
N    -2.94363   1.17615   1.07452
C    -2.37260   0.39305   0.12918
O    -3.04929  -0.31591  -0.61122
C    -0.84839   0.39768   0.09580
Br   -0.06364   2.02085   0.77131
C    -0.98144  -1.23276   1.78730
C    -0.69999  -0.38754   2.90132
N    -0.71728   0.36416   3.79186
O    -0.12768  -2.07088   1.18691
C     0.96747  -1.65458   0.50309
C     2.04898  -0.93396   1.25263
O     1.90305  -0.36508   2.31242
O     3.18283  -0.98245   0.56458
C     4.26666  -0.16999   1.04711
C     0.02801  -0.37870  -0.75836
Br    1.46389   0.52543  -1.73016
Br   -0.80730  -1.65568  -1.96820
H    -4.93708   1.29731   0.41491
H    -4.62952   1.84440   2.08748
H    -4.66190   0.09690   1.70278
H    -2.35925   1.65378   1.75368
H    -1.97987  -1.72796   1.85847
H     1.33966  -2.50248  -0.11942
H     5.08523  -0.30476   0.33323
H     4.57322  -0.48724   2.05160
H     3.95495   0.88703   1.07447
27

C    -4.36870   1.09469   1.32961
N    -2.94433   1.17762   1.07330
C    -2.37236   0.39321   0.12904
O    -3.04903  -0.31454  -0.61243
C    -0.84635   0.38640   0.11066
Br   -0.06441   2.01866   0.77218
C    -0.98256  -1.21862   1.77417
C    -0.69968  -0.38491   2.89970
N    -0.71636   0.36381   3.79252
O    -0.12758  -2.07554   1.18968
C     0.95810  -1.63747   0.48667
C     2.04772  -0.92993   1.24906
O     1.90278  -0.36733   2.31160
O     3.18191  -0.98139   0.56361
C     4.26714  -0.17053   1.04737
C     0.04303  -0.39776  -0.73834
Br    1.46281   0.52639  -1.73025
Br   -0.80731  -1.65651  -1.96808
H    -4.93744   1.29733   0.41487
H    -4.62970   1.84443   2.08735
H    -4.66183   0.09693   1.70267
H    -2.35956   1.65376   1.75374
H    -1.98052  -1.72344   1.85584
H     1.33955  -2.49991  -0.12071
H     5.08531  -0.30504   0.33328
H     4.57311  -0.48778   2.05160
H     3.95524   0.88690   1.07469
27

C    -4.36916   1.09496   1.32901
N    -2.94502   1.17909   1.07207
C    -2.37213   0.39336   0.12889
O    -3.04877  -0.31317  -0.61364
C    -0.84432   0.37512   0.12552
Br   -0.06519   2.01647   0.77304
C    -0.98369  -1.20447   1.76103
C    -0.69936  -0.38228   2.89808
N    -0.71544   0.36347   3.79317
O    -0.12747  -2.08019   1.19246
C     0.94873  -1.62037   0.47026
C     2.04647  -0.92590   1.24548
O     1.90251  -0.36957   2.31079
O     3.18099  -0.98033   0.56265
C     4.26761  -0.17106   1.04762
C     0.05805  -0.41682  -0.71831
Br    1.46174   0.52735  -1.73033
Br   -0.80732  -1.65733  -1.96795
H    -4.93780   1.29735   0.41483
H    -4.62989   1.84445   2.08722
H    -4.66176   0.09696   1.70256
H    -2.35986   1.65373   1.75381
H    -1.98116  -1.71893   1.85322
H     1.33943  -2.49735  -0.12200
H     5.08539  -0.30531   0.33333
H     4.57300  -0.48832   2.05160
H     3.95552   0.88677   1.07492
27

C    -4.36962   1.09523   1.32842
N    -2.94571   1.18056   1.07085
C    -2.37190   0.39351   0.12875
O    -3.04851  -0.31180  -0.61485
C    -0.84228   0.36385   0.14038
Br   -0.06597   2.01428   0.77390
C    -0.98481  -1.19033   1.74790
C    -0.69904  -0.37965   2.89646
N    -0.71453   0.36312   3.79383
O    -0.12736  -2.08484   1.19523
C     0.93936  -1.60326   0.45385
C     2.04522  -0.92186   1.24191
O     1.90225  -0.37181   2.30997
O     3.18008  -0.97927   0.56169
C     4.26809  -0.17160   1.04787
C     0.07307  -0.43589  -0.69829
Br    1.46066   0.52831  -1.73042
Br   -0.80732  -1.65816  -1.96783
H    -4.93816   1.29737   0.41479
H    -4.63008   1.84447   2.08710
H    -4.66169   0.09698   1.70245
H    -2.36017   1.65371   1.75388
H    -1.98181  -1.71441   1.85059
H     1.33932  -2.49478  -0.12328
H     5.08547  -0.30559   0.33339
H     4.57289  -0.48887   2.05159
H     3.95581   0.88664   1.07514
