15

C 3.338288807 -2.055688052 -0.706296270
C 1.113878768 2.200334436 -1.064749669
C 1.236198907 -0.328671070 0.209261751
C -1.461542134 -1.323863529 -0.277269442
C -2.993563474 1.087978390 -0.272210570
O -2.582438608 2.526189436 1.871924356
C -1.235495778 3.350173408 -0.371437972
H 3.192954411 -2.356171665 -2.742243128
H 3.262299291 -3.893693922 0.232434197
H 5.182187126 -1.215613592 -0.330705738
H 1.440692445 0.012790630 2.249751020
H -1.562196034 -2.238287280 -2.124495229
H -2.134557133 -2.662429298 1.141642776
H -4.856818958 1.216930863 -1.124541454
H -1.876188731 5.158209261 -1.077326873

