15

C 3.031138222 -0.776732617 -1.227148008
C 1.640575562 1.619256012 0.636056567
C 0.849021860 -0.775750300 1.372233224
C -1.865954258 -1.482509061 0.729253305
C -2.747232987 0.829449816 -0.685484905
O -2.690968546 3.020801514 0.852599792
C -0.614898059 2.625976178 -0.803303773
H 3.126595488 0.560190564 -2.788317825
H 2.131969512 -2.469153061 -2.020525578
H 4.906808601 -1.189157067 -0.523289504
H 1.919332653 -1.922442046 2.696820745
H -2.013631819 -3.218505663 -0.377561913
H -2.931851350 -1.760116235 2.475821848
H -4.258522709 0.742635533 -2.066852403
H -0.407554682 4.026185172 -2.288326037

