15

C -1.237007049 -1.962531131 2.021279560
C -0.286979800 -0.210666574 -0.003983278
C -2.006432568 1.600423549 -1.100651234
N -4.324800053 1.782028289 -0.467193645
C 2.161150152 -0.351760027 -0.761783617
O 3.262157316 1.042891906 -2.591339161
N 3.862862341 -2.022584321 0.214169824
H -3.258753201 -1.670123981 2.261746472
H -0.930957645 -3.948679019 1.535315057
H -0.341701676 -1.607572232 3.854887092
H 2.013603908 2.066380841 -3.416872595
H -1.229135640 2.885943571 -2.541051452
H -5.197018396 3.177431067 -1.451398897
H 3.482615619 -2.764381931 1.917181313
H 5.690305663 -1.680559464 -0.168842702

