8

O -6.558029368 -1.351801051 1.090368421
C -4.432003876 -0.861839173 0.898261339
C -1.995362816 -0.703862850 0.748933669
C -0.071520200 0.860430874 0.379616140
C 2.504433189 0.084981570 0.385900292
C 4.695389349 -0.493715573 0.376021918
H -0.375161904 2.869773998 0.043719494
H 6.633278187 -1.036795498 0.372539455

