8

O -5.400015554 0.332106989 1.132138153
C -3.325298036 0.359143376 0.258068861
C -1.988045495 0.840850817 -2.079988135
C -0.185391052 0.248314151 -0.487443156
C 2.236512052 -0.227287547 0.422008819
C 4.318319219 -0.639886890 1.213296221
H -1.711895413 -0.231237830 1.915359371
H 6.175844051 -1.004411110 1.902418602

