13

C -3.344981612 -0.876803801 0.264786686
N -3.295490989 1.880146215 0.334294744
C -1.703078726 0.512508200 -1.514770805
C 1.057811520 0.451947675 -1.323758045
C 4.431434256 -0.692801414 1.337346933
O 2.079305282 -0.539373416 0.656714297
H -2.432066165 -1.910310892 1.779979373
H -5.095045467 -1.699315544 -0.409789661
H -2.194290298 2.468730820 1.788636794
H -2.363455898 0.756666315 -3.439272709
H 2.289453674 1.321414765 -2.710034598
H 4.762328022 -1.688186191 3.077372355
H 5.879351200 0.099050581 0.132934183

