13

C -3.425610670 -0.636940411 0.199990868
N -2.687471608 1.998267004 0.382519950
C -1.497737627 0.382055795 -1.569535409
C 1.126819670 -0.412455592 -1.354875144
C 4.061456173 -0.260297623 1.382357318
O 1.894978543 -1.457425781 0.800947171
H -2.798966848 -1.938967077 1.650611614
H -5.317405572 -0.966722091 -0.510224145
H -1.470151367 2.230154182 1.846088380
H -2.077859982 0.866447762 -3.472162032
H 2.542025643 -0.099803277 -2.790517315
H 5.577069570 -1.413317230 2.112202920
H 4.096889502 1.770016019 1.273028290

