13

C 3.129588096 -0.439443565 0.194673822
C 0.638477155 0.252144664 -1.056497821
C -1.541306453 -1.115053895 0.157723138
C -3.328211918 -0.047534020 1.543274036
O 0.411964868 2.911026360 -0.926701623
H 4.691482832 0.498850299 -0.766935823
H 3.105727280 0.161382649 2.166949967
H 3.439710748 -2.476933536 0.129379060
H 0.720029136 -0.342630401 -3.048220155
H -1.137225957 3.395061471 -1.736105431
H -1.576569517 -3.144686573 -0.164334174
H -3.323819306 1.964991422 1.925946581
H -4.837711805 -1.155314491 2.368019492

