13

C 2.888702685 -0.322979498 0.475013256
C 0.619247812 -0.074748589 -1.244399620
C -1.912513198 -1.344038491 -0.769707598
C -2.354185393 0.650539522 1.215809330
O -0.901135537 2.378991903 -0.604172030
H 4.177604920 1.276025717 0.281431016
H 2.405005646 -0.569062714 2.459455024
H 3.900206221 -2.015754983 -0.135201419
H 1.260324380 0.090865931 -3.199369465
H -2.206505904 1.568280234 -1.985741484
H -2.077676093 -3.356425226 -0.388272824
H -1.238061554 0.704862780 2.958372862
H -4.247287305 1.382858417 1.564514085

