17

C 3.759706633 -0.340332022 -1.223657041
C 1.676197523 0.658135182 0.502851870
O 0.072635724 2.179360593 -1.078070480
C -2.368779388 2.285166680 -0.025813054
C -3.394447877 -0.356739229 0.275556008
C 0.081163038 -1.191536591 1.897590295
O -1.261696642 -2.908894050 0.010354263
H 4.661603843 1.214871855 -2.231078693
H 3.038378707 -1.639105789 -2.662535935
H 5.187805225 -1.329549885 -0.115122153
H 2.549650991 1.851080847 1.965537137
H -3.516960503 3.350430751 -1.377794215
H -2.364328214 3.235166849 1.813026506
H -4.463448465 -0.730538319 1.972937266
H -4.379365101 -1.001025798 -1.431332122
H 1.171439807 -2.381738582 3.180613196
H -0.339707392 -3.049186561 -1.576317522

