12

O 3.330171318 0.629579360 -3.128557364
C 2.961330000 -0.036601331 -0.674190314
C 0.562753864 -0.817964155 0.353655366
O 2.330702560 -2.654661333 -0.137233593
N -0.934944041 -0.592588331 2.608246636
C -2.159231324 -0.737321151 0.017983768
C -2.496865441 1.492836263 1.628601539
H 4.440909683 0.716264121 0.525222448
H -3.466402922 -2.218888731 -0.486509235
H 1.873608367 0.157846858 -4.106835149
H -1.569068571 3.252616486 1.113498083
H -4.268746203 1.689271309 2.634296094

