10

O -5.067061194 1.144303302 -0.084855336
C -3.346050819 -0.263206440 -0.040637691
O -1.241105846 -0.187221649 2.650097342
C 0.146330810 0.927719335 0.971163156
C 2.622074102 -0.073643440 0.354903341
C 4.659945552 -0.906929872 -0.167102434
H -3.110041355 -2.308981613 -0.064939852
H -1.264462861 0.377352172 -1.258119050
H -0.045938089 2.976820520 0.701859287
H 6.477396530 -1.649869121 -0.611739817

