12

O -2.424562970 3.994918331 0.061597607
C -1.458001864 1.854405291 -0.286614629
C -3.114319222 1.529627171 -2.263995832
C 0.208733554 -2.291062814 1.406417878
C 2.235528450 -1.206408358 -0.187118678
C 0.445466141 0.551768980 1.189734624
H -1.402983433 -3.145870052 0.484047508
H -2.435271008 2.272118518 -4.065727824
H 0.704817275 -3.094474282 3.218017055
H 2.042058875 -1.329015962 -2.218941190
H 4.159265733 -1.245874060 0.500077809
H 1.142494797 1.597403748 2.801815138

