15

C -2.509267657 1.561640738 1.036703884
C -1.498530272 -1.277510343 -1.691921839
N 0.980031376 -0.914529008 -2.108149079
C 2.707730927 -2.226673269 -0.408285175
C 3.378692852 -0.579951940 1.415236852
N 2.159711617 1.678079010 1.361849424
C 0.445414740 1.591861672 -0.537971580
H -4.346400738 1.587924863 0.096497939
H -2.461218611 0.244782348 2.610853475
H -2.168108294 3.439058471 1.806868418
H -2.807658265 -0.476399181 -3.047977477
H -2.163408111 -2.802418281 -0.493960935
H 3.651174352 -3.899711755 -1.081995990
H 4.803401049 -0.918770366 2.843745420
H 0.160679142 3.131234142 -1.869022701

