9

C -2.649454589 -1.764681076 0.037601638
N -0.598183356 -0.538192451 -0.046381627
C 1.604844507 -1.975854380 -0.021695076
N 3.832997355 -1.075413223 -0.083024191
N 4.033952494 1.433555573 -0.177075180
C 4.555105001 3.576079735 -0.259497796
H 1.487542365 -4.032822589 0.054658231
H -2.736772938 -3.832777391 0.125847766
H -4.426718199 -0.735246137 0.022796314

