11

C -2.357108062 -0.584964741 0.303527942
N 0.105389743 -0.432373551 0.567472396
C 1.396823795 2.071853998 0.810527459
N 3.696055933 1.678347804 0.330442669
N 4.172372155 -0.890196725 -0.278843905
C 2.023294159 -1.992591212 -0.330248500
H -3.157417696 -1.922834920 -1.028951113
H -2.746926833 2.718339434 -0.960722627
H -3.561744442 0.238533647 1.732327491
H -1.444308833 3.348607486 -0.333777148
H 1.721348881 -3.967604002 -0.751908929

