13

C 3.047745910 -0.266395863 -0.761507717
C 1.230822164 1.004684044 0.893739508
C -1.091949971 2.129083711 -0.428207877
C -2.157489337 -0.574221081 -0.758850158
C 0.175179407 -1.700531715 0.561074577
H 1.475474518 -2.524734366 -1.047292832
H 4.464328435 -1.141656817 0.491231301
H 1.778838054 1.610314886 2.774868342
H -0.650775266 3.136611887 -2.167371754
H -2.259485377 3.315663569 0.784040528
H -3.875279127 -0.909131988 0.323566315
H -2.449675861 -1.214021989 -2.693670496
H 0.131247678 -2.981226681 2.156375211

