17

C 4.192474022 0.429694033 0.381138238
C 1.413140975 0.051263508 0.121356228
C 0.228417735 -2.508263154 -0.265835106
C -2.623693805 -2.019902498 0.069239735
C -2.976086191 0.832199348 -0.356597083
C -0.353623259 1.835492308 0.054587838
O 0.112348168 4.363765242 0.185005114
H 4.650671853 2.420834635 0.638208077
H 5.195370139 -0.252206741 -1.294144449
H 4.937192619 -0.620863603 1.998388268
H 0.930339950 -3.915653220 1.076186461
H -3.171078318 -2.488515648 2.001754456
H -3.787698239 -3.161159297 -1.190519711
H -3.618277338 1.271322793 -2.277141183
H -4.355598621 1.660255434 0.945300591
H 0.665166645 -3.237051303 -2.157187756
H -1.452534395 5.252238707 0.381503844

