12

C -3.092332901 -0.567614277 -0.980259522
C -1.750802001 1.643001498 0.303622826
C 0.323348751 0.792376167 2.032247530
C 2.735730848 1.417948382 1.810963833
H 3.384456422 2.653959999 0.308071052
H 4.148692470 0.729800248 3.122591253
H -0.242544628 -0.458203670 3.565134441
H -0.978655844 2.927956832 -1.118086055
H -3.132357830 2.730298282 1.396201829
H -1.777212606 -1.652049941 -2.142425593
H -3.903259867 -1.856233318 0.414286888
H -4.624543063 0.092343697 -2.192811758

