15

C -3.818590726 -0.312567107 -0.661605494
C -1.536446059 1.318782207 -0.006326879
C 0.538289356 -0.151595077 1.304079382
C 3.085170632 0.601678971 1.121553778
O 3.988111272 -2.023783428 -1.106396473
H -3.293291650 -1.836461945 -1.951400115
H -4.613716085 -1.182421044 1.033839966
H -5.311262772 0.797851516 -1.554043680
H -0.780233921 2.161352939 -1.740461704
H -2.160602434 2.904664332 1.171132519
H 1.727915680 -1.853700990 -0.344466005
H 0.005499254 -1.148948854 3.019110701
H 3.626378140 2.202600463 -0.040984040
H 4.446118165 0.085290804 2.556625913
H 4.268221823 -1.507621348 -2.833072323

