11

C -0.953123339 -1.188915201 -0.628378326
O -0.318649077 -2.866903806 -1.989125794
C 0.364356261 1.131871871 0.495063836
H 1.651646258 0.879582247 2.085074786
H 1.273736578 2.244206885 -0.981242199
N -2.160523784 2.202438136 1.175932386
C -3.217333938 0.450893113 2.985686850
H -1.957641086 -0.637563926 4.185734276
H -4.924458473 1.118538058 3.895129661
C -3.437757773 -0.183393517 0.261482027
H -5.220493198 -0.209707198 -0.738914946

