15

N 2.524627653 -0.578548894 -2.869722295
C 1.415488828 -1.477261953 -0.254723422
O 1.456036795 -3.698520004 0.113492964
C 1.183891799 0.698487770 1.635158340
N -1.158388017 1.988751024 1.060454170
C -3.254215458 0.194131981 1.145091526
C -2.029656621 0.673270811 -1.315569408
H 2.920541773 -2.122892061 -3.935253894
H 4.010454336 0.631668037 -2.773421643
H 1.245534532 -0.080799133 3.546422826
H 2.794326229 1.985498824 1.410421943
H -2.954900452 -1.613698365 2.082289632
H -5.051942837 1.072011527 1.595109261
H 0.672182234 0.209318387 -3.239463519
H -3.126468026 1.916490977 -2.551979908

