17

C 4.024513199 2.016001347 -1.255903006
O 1.419838788 1.635385070 -0.785773180
C 0.678573345 -0.817508693 -0.822648786
C 0.062935798 -2.889484332 2.525818464
O -2.098770387 -3.381828229 1.088321149
C -2.186677763 -1.279126531 -0.571350681
C -3.695674605 0.933672142 0.440696869
H 5.173208149 1.104266299 0.202526994
H 4.557793288 1.268907648 -3.110721241
H 4.353032014 4.043961807 -1.212233325
H 1.528393085 -1.896304110 -2.384576989
H -0.195325418 -1.048086517 3.492710366
H 1.733086858 -2.255465514 0.869306483
H -3.009705439 -1.892722285 -2.368601433
H -3.604015461 2.523152703 -0.867629237
H -5.662314189 0.354921369 0.642052668
H -2.999645633 1.572995611 2.269565479

