14

C -3.663477073 1.721773729 0.065206890
C -1.746223025 -0.323606755 0.564379690
O -0.690880205 -1.356209726 -1.591323346
C 3.124135688 -2.641275703 -0.090107490
C 2.083979652 -0.185995954 -0.267592967
N 3.891273542 1.100875053 -1.361506968
O 0.547316559 0.736955451 1.622651755
H -4.223192163 2.633217892 1.828793323
H -5.331942215 0.891277686 -0.816121993
H -2.861132072 3.124583818 -1.212750316
H -2.502787521 -1.754963311 1.864546828
H 3.888703685 -3.462875011 -1.795361706
H 3.264781975 -3.628137400 1.704610859
H 3.933074076 2.914644335 -0.713286442

