16

C -3.268598731 1.473452038 -0.207162719
C -1.392441180 -0.217936615 1.080971059
C -0.598176912 -2.757028836 0.054101820
O 1.674298178 -2.471210160 1.829747143
C 1.414228929 0.402614862 1.223297388
C 2.995687413 1.093785840 -1.056206595
H -3.472070324 3.252347143 0.822128733
H -5.136097897 0.593163677 -0.238281501
H -2.789008653 1.954992786 -2.176438868
H 0.241306423 -2.045724226 3.217989201
H 0.256601356 -2.930069300 -1.828225706
H -1.672965486 -4.457812490 0.498278903
H 2.089760513 1.453127807 2.867577134
H 5.003588940 0.756357704 -0.728799676
H 2.740510419 3.122204955 -1.349079676
H 2.427664124 0.142180216 -2.788935142

