14

O 3.014578967 1.223966351 -1.470766378
C 3.510554294 2.743915649 0.362500323
C 0.325882514 -1.881789218 1.096724609
C 0.723429528 -0.282729295 -1.273076365
C -2.510917369 -1.208946090 0.912395205
C -1.777206294 1.067145804 -0.765584310
H 5.312550469 3.634803900 -0.254485241
H 0.889940176 -3.859895623 1.024273814
H 1.201085755 -0.947620645 2.711555298
H 0.710985493 -1.387416153 -3.009008168
H -3.579666246 -2.628907030 -0.130250885
H -3.490884853 -0.796228827 2.672932490
H -2.959315968 1.536916449 -2.383490490
H -1.431402646 2.744787436 0.379711930

