8

C 3.306769668 1.877031209 0.875981846
H 4.471557715 2.860427318 -0.508538112
H 3.845482965 2.431168129 2.784829126
O 3.504958342 -0.843128636 0.562958181
C 1.083160439 -1.227010246 0.061234251
C 0.493647260 1.592807953 0.307252649
H -0.198426270 2.439424305 -1.438632927
H -0.821221079 2.030061514 1.831379016

