12

C 2.654450345 0.351466439 -0.127134840
O 2.196122804 -1.299377214 1.837139431
C -0.088298700 -0.392842371 0.799463245
C -0.772435134 2.045699659 1.401286667
O -3.271510761 -0.152553716 -2.194583527
C -1.816261188 -1.821390264 -1.066963785
H 2.889533673 -0.396856546 -2.024952507
H 3.686910018 2.054149947 0.364048368
H -2.355899355 2.720566042 0.263484778
H 0.184839233 3.131081395 2.848454750
H -2.782375960 -3.231676222 0.175401809
H -0.534022789 -2.977783997 -2.281580036

