10

O -4.096718784 0.193151628 0.406389987
C -1.538864549 0.286018723 0.387990915
C 0.188593269 2.114677063 0.877899616
C 2.540935026 0.670800485 0.430037340
N 2.011756039 -1.943696627 -0.307859951
N -0.368252328 -1.971689083 -0.275196450
H -4.657444442 1.850698027 0.895607653
H 3.763972822 0.571863043 2.102003161
H 3.737390007 1.477201009 -1.058363774
H -1.288355575 -3.596862357 -0.721561477

