10

O -4.000650248 0.190040289 0.705814011
C -1.476247529 0.217866714 0.372877452
C 0.269366343 2.167335339 0.527458976
C 2.563864093 0.654073291 -0.016466185
N 2.058301808 -1.861982564 -0.663807573
N -0.365664972 -1.974690176 -0.344145111
H -4.468368500 1.871160454 1.215422881
H 2.541460842 0.729108684 2.147650346
H 4.356296402 1.410496190 -0.649999854
H -1.252794879 -3.655622408 -0.559866721

