13

N 4.921677476 -0.940122609 2.739521582
C 3.781421193 -0.286717487 1.014176761
C 2.368157064 0.558563736 -1.158597266
C -0.416961380 0.135796267 -1.262761824
C -1.777374329 -1.239665345 0.891822097
C -4.098790717 0.300236380 1.059778272
N 0.604291423 2.662127622 -0.933791724
H 3.435313166 0.514835492 -2.905829726
H -1.207481363 -0.189303371 -3.126059373
H -2.027540109 -3.208809516 0.295857015
H -0.628081677 -1.163283636 2.603328189
H -5.325595381 -0.309798299 -0.523982447
H 0.429519649 3.240905891 0.885668034

