13

N 4.483252058 0.135788992 3.260179982
C 3.434823557 0.400542683 1.381763415
C 2.199121175 0.679759450 -1.038822248
C -0.174537373 -0.639332842 -1.629961801
C -1.711955053 -1.697397453 0.522107442
C -2.369724440 0.892162607 1.549600045
N -0.104252222 2.200704161 -1.350563753
H 3.501332506 0.962036251 -2.595090891
H -0.425413747 -1.318903471 -3.544782298
H -3.327045843 -2.752792902 -0.194061550
H -0.640780807 -2.882700140 1.825863133
H -4.135671671 1.548683736 0.689524100
H -0.665039145 2.549498357 0.800993564

