17

C 4.046450085 -0.145073273 -1.054648780
C 1.571076726 0.501107974 0.207769302
O 0.099945687 2.007117726 -1.416626764
C -2.304524845 2.305630826 -0.298709953
C -3.181597535 -0.245145912 0.678727244
C 0.068327451 -1.914554801 0.816745073
O -0.044876403 -3.757534355 -0.849977419
H 5.071094606 1.580999848 -1.513522849
H 3.677281674 -1.214721717 -2.772857560
H 5.214192171 -1.299179416 0.193185889
H 1.888396986 1.526998448 1.993542028
H -3.546466914 3.081820903 -1.744846870
H -2.192854314 3.665456977 1.265413771
H -3.799206029 -0.327662258 2.633247958
H -4.693448884 -1.076900079 -0.491313958
H 0.128467361 -2.441060770 2.833347278
H -2.095101938 -2.276025848 -0.388924345

