16

C 4.155786709 -0.471373568 -0.798453658
C 2.114071273 1.096065341 0.552754378
C -0.200713424 0.835839150 -0.991562050
C -1.788008403 -1.496450780 -0.552534773
C -4.185533833 -0.007503082 0.051970152
O -3.114888370 2.440351631 0.590223962
H 3.631895007 -2.464583325 -0.902842318
H 4.467176649 0.211799975 -2.717856155
H 5.932306428 -0.340950453 0.234816839
H 1.860460919 0.371902561 2.479928525
H 2.721672873 3.063470302 0.662384893
H -1.953492892 2.693595247 -1.157695659
H -1.168070596 -2.626591605 1.069187445
H -1.900440097 -2.719222711 -2.211229652
H -5.207601883 -0.669211415 1.710516763
H -5.502135749 0.106871685 -1.538027381

