15

C -3.080362375 -1.450866787 -0.032309290
C -1.359925626 0.552803152 -0.969234728
O -2.321525143 2.534919971 -2.000243450
C 1.635930331 0.517360526 2.088487953
C 2.948231269 -1.164239327 0.267671939
C 1.344571602 0.643513615 -1.168162663
O 2.137048566 2.591115853 -2.384193865
H -4.421069505 -0.671041218 1.325053414
H -4.163847884 -2.160815387 -1.638141160
H -2.063877086 -3.018446745 0.823546217
H -0.570801017 3.351335344 -2.608294332
H 2.550242664 2.259605469 2.635458163
H 0.266229265 -0.257128722 3.390612583
H 4.941454159 -0.841824215 -0.058116354
H 2.416922089 -3.142725453 0.284016369

