8

C 4.993889997 0.099588227 -0.396096706
C 3.457681250 -1.323270420 -2.369927926
H 1.900549399 -0.172550968 -3.082350574
H 4.623891901 -1.860827733 -3.984723674
H 2.646009543 -3.050822365 -1.586803915
H 5.805456559 1.827214098 -1.179220868
H 6.551205246 -1.051008639 0.316196156
H 3.827954735 0.637098411 1.218928644

