15

C -2.829051515 -2.110773682 0.075546923
C -2.221192496 2.579335016 1.109945152
C -0.449124537 3.936953476 -0.055687508
N 1.777234980 2.392238845 -0.799043215
C 1.419463508 0.068575856 -0.110286193
N 3.026442800 -1.850254206 -0.475001162
C -1.116625107 -0.076404008 1.200568291
H -2.022350317 -4.012514629 0.201490952
H -4.616935045 -2.096198924 1.092044098
H -3.232399629 -1.697265852 -1.904288430
H -0.311885653 5.910862156 -0.567649048
H 3.330115080 3.020889878 -1.708095079
H 2.499952516 -3.597580528 0.033272483
H 4.656830206 -1.661844429 -1.423927438
H -0.719451447 -0.546603017 3.182985879

