15

C -3.217601486 -1.234017200 -0.260551753
C -2.006778312 1.779534399 1.433602609
C -0.605497125 3.285329005 -0.250020820
N 1.639392631 2.168140306 -0.817548623
C 1.867736345 -0.114225100 0.254009238
N 4.024217740 -1.601136637 -0.196329033
C -0.419637156 -0.470717172 1.608570895
H -2.302811600 -2.809469946 -1.230631245
H -4.601023532 -1.917264725 1.081324834
H -4.109430442 -0.029352171 -1.648536581
H -1.016758808 5.142352078 -0.988988904
H 3.040048583 2.917428676 -1.875077535
H 4.705563313 -2.393166077 1.399062610
H 3.728052530 -2.980688827 -1.486546574
H -0.631851851 -1.931554853 3.026022733

