16

C -4.840006083 -0.890560327 0.262050967
C -2.193007004 0.044488027 0.121929854
C -1.308495180 2.410131830 0.088463466
C 1.503699146 2.259998967 -0.070050919
C 1.878563153 -0.556497831 -0.111555428
C 4.389165259 -1.819421907 -0.266979713
N -0.208752792 -1.773600810 -0.003602668
H -5.088310465 -2.090092878 1.923019622
H -6.180936202 0.669021025 0.360911763
H -5.280808664 -2.047215049 -1.389556815
H -2.404109821 4.130379625 0.159248392
H 2.468734071 3.122580746 1.544648925
H 4.145250995 -3.861462961 -0.279284098
H 5.391235112 -1.248401568 -1.979775543
H 5.577700058 -1.292032982 1.337258891
H 2.284632624 3.142796753 -1.771077988

