13

C -3.908305304 1.696353285 0.127833320
C -1.749823823 0.502214012 -0.240777980
C -1.160925352 -2.180231454 -1.038254499
N 1.587960295 -2.311908836 -1.026089595
C 2.337009936 -0.125682888 -0.409902553
N 4.748566998 0.731050340 -0.249732655
O 0.558229330 1.680473217 0.094645667
H -5.672721459 0.706803737 -0.150170942
H -1.972839681 -3.558782977 0.267772453
H -3.959194551 3.654668493 0.706262160
H -1.912551295 -2.592975759 -2.918280281
H 5.043471440 2.251914945 0.845517250
H 6.083331526 -0.616973810 -0.214653537

