13

C -2.407670670 -1.559669886 0.331947458
C -0.088150980 -0.094080639 1.061638008
C 2.322606293 -0.369896088 -0.524167017
O 3.148737976 2.158905857 -0.533862691
C 0.794123162 3.365840088 -0.500363479
H -4.055508015 -0.979119054 1.424794576
H -2.102304704 -3.573433513 0.695369079
H -2.839465776 -1.338410206 -1.671676674
H 0.333036186 -0.227220877 3.082543742
H 1.844942620 -0.999980553 -2.446963443
H 3.762575823 -1.624178691 0.267915884
H -0.444049980 2.314390765 1.275622298
H -0.251792589 2.790711239 -2.228076749

