16

C 3.649846233 0.846651917 0.161079650
N 1.783870111 -0.992271056 -0.624243397
C 0.000540802 -1.975592124 1.303871795
C -1.421124388 0.022415175 2.620763520
C -2.027547139 1.744396302 -0.907660137
C -0.361817074 -0.128586962 -2.151889266
C -2.149080831 -1.484428966 -0.417675658
H 2.861959980 2.339865728 1.365094821
H 4.502480097 1.699025093 -1.512927982
H 5.143316140 -0.113314668 1.211254353
H 0.330214560 -3.831334623 2.103614984
H -3.045509003 -0.823082799 3.603876623
H -1.357633842 3.413020256 0.041883550
H -3.785578212 2.049706086 -1.930442353
H -0.305123570 -0.359080165 -4.186464523
H -3.904843628 -2.465571992 -0.718705251

