12

O -4.322118456 1.058435413 -0.775268873
C -2.561922362 -0.624987685 -0.590305825
C 0.054888210 0.115679396 -0.514880600
N 0.711433055 2.229164797 -1.659936316
O 3.203709277 2.435450532 -1.210761682
C 3.945772828 0.397496331 0.204963626
C 2.003310570 -1.159661749 0.799641691
H -3.575552142 2.728756908 -0.592481750
H -2.070313021 -2.390450824 2.554440539
H -3.174303552 -2.517780117 -1.064109335
H 5.932086729 0.427127993 0.665929471
H -0.497493759 -2.549987967 2.436449668

