14

C -3.590941750 2.221039957 -1.638988003
C -2.890787261 -0.234648068 -0.488512855
C -0.522472537 -1.140544618 -0.149466697
C 1.602281603 0.347445650 -0.876168891
C 4.071290535 -0.530530858 0.009002693
O 4.341325368 -2.738428905 1.529681274
H -5.044352204 1.922902213 -3.076891250
H -4.434388994 3.448733963 -0.204373181
H -1.943547112 3.150840580 -2.441809990
H -0.326779057 -2.994121869 0.733400177
H -4.460056407 -1.393084499 0.172623042
H 5.008962773 1.104275199 0.892028758
H 5.178302530 -0.873262889 -1.712653571
H 3.597538879 -2.420358801 3.150842639

