14

C -3.759006924 2.195646952 -0.866758244
C -2.697624086 -0.376670586 -1.355405156
C -0.153974998 -0.888079910 -1.514113748
C 2.233308097 -0.549890441 -1.900912963
C 4.271470338 -1.039182487 -0.076924061
O 3.564201370 -1.627509050 2.461531512
H -5.574124035 2.401925014 -1.826892202
H -4.101166254 2.518096457 1.145013594
H -2.448627630 3.642354943 -1.530163532
H -0.850154033 -2.173393839 0.180004331
H -4.009418804 -1.946645771 -1.511466430
H 5.565649577 0.581130184 -0.106612868
H 5.371937380 -2.654774716 -0.741707129
H 2.816944644 -0.146535562 3.191518635

