14

N 3.079652631 -3.412543384 -0.597119516
C 1.790563200 -1.438959453 -0.799865548
O 2.652615364 0.823885045 -1.828364828
C 0.711539012 2.479338363 -1.574035281
C -1.695817037 1.281400703 -1.466279847
C -2.587131082 -1.544832455 -2.046344925
C -0.861313924 -0.974236001 0.006782114
H 4.867187186 -3.173897223 -1.254643636
H 1.140075399 4.391034387 -2.156910911
H 0.734301916 2.502162079 1.553181832
H -3.223016817 2.414567093 -0.717706455
H -1.957612362 -2.654952048 -3.655408888
H -4.612126750 -1.572416863 -1.740915994
H 0.007375847 0.868740680 2.082270036

