17

C -3.821744792 -0.463979278 -0.247248119
C -2.023554696 -0.601455530 -2.449553199
N -0.102287833 1.355480802 -2.802080380
C 1.419768831 -0.814929519 -2.088905223
C 2.151753943 -0.990293968 0.639878897
C 4.081986196 0.847873247 1.488672327
N 1.608105550 0.814993335 2.688786536
H -5.064150278 1.174295713 -0.445040027
H -2.838225209 -0.328558310 1.556291017
H -5.013579299 -2.145630436 -0.196242691
H -2.896157806 -1.078622318 -4.253439346
H -0.289604686 2.609002450 -1.348663671
H -0.584651405 -2.425825836 -2.377693094
H 2.359614991 -2.913478979 1.314069986
H 5.643853266 0.215455707 2.649756114
H 4.525854894 2.386968796 0.206063390
H 0.553228831 2.299194797 2.092618082

