14

C -3.849589359 -0.421364026 0.305268550
C -1.001740398 -0.609554745 0.420694968
O -0.042664460 1.527405987 -0.863466568
C 2.425886742 1.521537386 -1.556131638
C 4.215035387 -0.116110971 -0.929954748
O -0.089771421 -0.767710668 2.891642570
H -4.691005355 -2.030103787 1.276158149
H -4.493373979 -0.398136230 -1.650460776
H -4.482016706 1.321408605 1.213872757
H -0.312860619 -2.317535572 -0.521161521
H 2.804096679 3.117147897 -2.783970000
H -0.703859109 0.664294952 3.825036582
H 6.084136549 0.143451416 -1.710861204
H 3.916601636 -1.667471637 0.363418636

