14

C -3.847482068 -0.428166964 0.597730200
C -1.136411239 -1.245973818 0.247750200
O -0.186655600 0.665943379 -2.066485135
C 1.992904699 1.612920459 -1.307516397
C 3.768338543 -0.036337600 -0.180348828
O 0.361710758 -0.954816892 2.149869432
H -4.768763257 -1.725846770 1.909457964
H -4.859869354 -0.447735664 -1.195768916
H -3.897883748 1.468567682 1.400585200
H -0.988338083 -3.051793816 -0.785044918
H 2.583575411 3.441745322 -2.044768950
H 1.822302189 1.946969425 0.939247684
H 5.408213602 0.792103083 0.728121813
H 3.653136757 -2.070026311 -0.250328864

