17

C -4.489664428 -1.039375485 -0.202477011
C -1.846274820 -0.114938869 -0.966723414
O -2.121002581 2.176432197 -2.228408812
C -0.331814176 0.055783940 1.382252740
C 4.310552388 -1.060385667 0.997263939
C 4.386520663 1.453514275 0.374424949
O 2.484032878 2.719316309 -0.328126942
H -4.428569167 -2.918998264 0.638118258
H -5.365414801 0.279256243 1.117784095
H -5.645470682 -1.107616008 -1.905247296
H -1.001983058 -1.561680762 -2.199230156
H -0.465533464 2.959095720 -2.217367124
H -0.426379813 1.768108019 2.490175168
H -0.100170867 -1.678564367 2.432437912
H 3.054142198 -2.255872013 -0.090775602
H 5.891338073 -1.982357476 1.913001919
H 6.190467092 2.479177699 0.467839119

