8

C -2.687063257 -1.643069188 1.151323711
H -2.337753090 -3.502147979 0.396962125
C -2.651920663 -0.129093409 3.083035940
H -2.251346648 0.153202932 5.059712408
C -3.430375388 1.001847054 0.651735039
O -1.864302184 2.674127156 -0.688304055
H -0.136487794 2.226249554 -0.359792894
H -5.376870567 1.530268922 0.271010386

