12

C -3.155919219 0.108891745 -1.508951621
O -1.662619236 -2.071702895 -1.210686055
C 0.387501627 -1.719881679 0.392150542
N 2.223375716 0.030750058 -0.646791080
C 3.248701597 1.558650265 0.854737904
H -3.841104451 0.804174275 0.323451079
H -2.109620911 1.625076746 -2.450077825
H -4.769853213 -0.417626129 -2.670944120
H 1.303274188 -3.560792134 0.564163788
H -0.261731358 -1.097220663 2.279881494
H 4.679838850 2.860025619 0.155102654
H 2.777559463 1.660977612 2.873912233

