12

C -3.214075597 0.141428180 -1.737080095
O -1.793267681 -1.953544765 -0.841684488
C 0.605195676 -1.495061378 -0.118178388
N 1.931935350 0.558682921 -0.877333605
C 2.968834972 1.134081812 1.389039597
H -2.765528125 1.848000896 -0.668627603
H -2.816087937 0.490781169 -3.728790676
H -5.196902291 -0.348508753 -1.494604725
H 1.647653002 -3.260583117 -0.034943644
H 1.587381566 -1.179529725 2.394981273
H 4.933502759 1.779639600 1.474294100
H 1.786867784 1.927080738 2.868615463

