10

C -1.488461906 3.206112896 -1.955996439
C -0.490567573 1.057631921 -1.228644746
N -0.375339897 -1.528109910 -1.620391945
H 0.590644010 -2.070435173 -3.184696856
C 1.234778174 -0.371326270 0.375297019
C 3.921029434 -0.128467891 -0.055274905
N 6.056076195 0.029458619 -0.399483851
H 0.719739536 -0.895664326 2.286484083
H -2.786933733 3.279183937 -3.533381184
H -1.015777170 4.939119592 -0.984669784

