16

C 5.419933778 -0.775695517 0.019632648
C 2.843458446 0.428184218 -0.125353187
C 0.749090044 -1.175735382 0.828458182
C -1.589869901 -0.407162602 1.022442405
C -5.838976918 0.160634752 -0.864791984
C -3.907422972 0.367583535 1.204298252
N 2.390059689 2.623321850 -0.974746398
H 5.874159083 -1.258453947 1.975533051
H 5.451422832 -2.533753896 -1.063497253
H 6.878030865 0.481492900 -0.710476098
H 1.212545168 -3.091341098 1.403274167
H -6.522319421 2.034213885 -1.395269080
H -7.466854956 -0.942098053 -0.236684833
H -5.041003023 -0.734876431 -2.536710524
H -4.484123732 1.251361522 2.967230008
H 4.016275127 3.476842071 -1.543896247

