10

O 4.181604771 -0.744999675 -0.163399459
C 1.689173138 -0.241170987 -0.069106510
C -0.232497654 -1.945034818 0.154966008
N -2.387034313 -0.471761378 0.160360836
C -1.663896180 1.956857757 -0.053989683
N 0.803052912 2.164273662 -0.197444103
H 5.032209674 0.851253079 -0.332501091
H -0.264347400 -3.970989692 0.302097968
H -4.168817202 -1.103770113 0.298387925
H -2.989447764 3.505342165 -0.099371891

