10

O 4.035931019 -0.385821169 -0.044803687
C 1.510446073 -0.122271705 -0.114755339
C -0.280097946 -1.920954624 0.196206824
N -2.553199934 -0.655994916 0.065371258
C -2.247275800 1.813962620 -0.516571263
N 0.372842095 2.156376515 -0.630025752
H 4.768418628 1.180046527 -0.602999380
H -0.121910730 -3.935665836 0.428602716
H -4.255078343 -1.457450669 0.313701113
H -0.971165574 3.353316665 0.890318196

