11

C 4.967280820 0.110953096 0.556739470
C 2.842729503 0.445373355 -0.141791234
C 0.231686791 0.813419515 -0.947078369
C -1.605762025 -0.719346699 0.700597857
C -4.224901194 -0.362241355 -0.092924920
N -6.269643876 -0.060282963 -0.744270524
H 6.863818216 -0.175852225 1.163588657
H -0.249025803 2.817618596 -0.844541509
H 0.028726407 0.250427942 -2.922028648
H -1.153214155 -2.728422597 0.594953191
H -1.431694666 -0.156355373 2.676756029

