12

O 4.533498874 -0.271392526 -0.082920578
C 2.150125944 -0.153270829 -0.040045432
C 0.104554219 -2.072632830 0.000668944
C -2.258118519 -0.358925018 0.044779668
C -1.191664752 2.303702776 0.017353317
C 1.354581349 2.414050707 -0.031201778
H 0.268490322 -3.293246844 1.655473142
H 0.204900585 -3.290374083 -1.661572346
H -3.490387987 -0.690635750 -1.581439682
H -3.421003348 -0.681893083 1.723122238
H -2.468951559 3.910835949 0.038307470
H 4.253472076 2.042554720 -0.083182588

