8

N 3.089465469 -1.094553862 0.823343506
C 3.385668644 1.121381548 0.968936983
C 0.503538899 0.777168483 -0.506169586
C -1.699142124 -0.793971304 0.048600354
O -1.406504975 1.716071386 0.968434618
H 0.840371941 1.581659986 -2.354068626
H -3.129055552 -1.029660951 -1.402694626
H -1.540404298 -2.271420831 1.454475333

