12

O -3.852191417 -0.140722330 2.121304086
C -3.120147043 -0.316743610 -0.020744865
C -0.826815707 1.064834310 -0.916750041
C 0.919411418 2.177180737 0.797295842
N 2.861789886 0.276168714 0.021522129
C 2.314670558 -2.118814183 -0.232562301
O 0.270774775 -3.120692380 -0.821706908
H -4.159402719 -1.370574668 -1.481420163
H -0.594655105 1.363318422 -2.929291867
H 1.665333979 4.025693239 0.313990619
H 0.382817411 2.040826471 2.778728524
H 3.965859313 -3.348819117 0.045408947

