12

C -3.037690790 0.196176551 0.123333070
C -0.304105197 1.084060232 0.058582266
C 1.544616063 -1.124852219 0.340398540
C 4.182184539 -0.313070757 0.280031711
N 6.241757094 0.361353940 0.230182229
H -4.332459983 1.783799813 -0.098402159
H -3.425474269 -1.146727046 -1.396112804
H -3.483282239 -0.732756555 1.912421395
H 0.086625518 2.064368150 -1.715561992
H 0.042667465 2.447549636 1.569078435
H 1.222958220 -2.117422646 2.123074760
H 1.262203599 -2.502479118 -1.172404815

