12

C -3.595958520 1.400247790 0.043125553
C -0.932839415 0.605769869 0.156155024
C 3.300419791 -2.553680000 0.464953186
C 3.774164814 -0.038080684 0.236295115
N 3.554610764 2.164666063 0.032276957
H -3.672641225 3.270288675 -0.852828657
H -4.692374858 0.153981291 -1.189030399
H -4.490079374 1.526955079 1.890234348
H 0.014604446 0.113344809 -1.562690783
H 0.009699700 0.442121685 1.937490502
H 3.449127215 -3.437168877 2.301849031
H 3.451886253 -3.750647777 -1.184831408

