14

C -0.851421756 2.625860603 0.398540103
N -0.936822372 0.126574309 -0.723603194
C -1.912474043 -1.767524641 1.001030239
C 1.359279321 -0.590964961 -1.927565188
C 5.060430636 -1.045551658 1.306995701
N 3.479745692 -0.866432852 -0.212203526
H -2.748226076 3.164539318 0.997721404
H -0.208587686 3.998834788 -0.999354298
H 0.407181234 2.727633296 2.049960746
H -0.741829243 -1.988180591 2.704599916
H -2.023255949 -3.591029377 0.044622972
H -3.815012700 -1.234230040 1.586740004
H 1.893673366 0.828293908 -3.322466829
H 1.120373058 -2.402520392 -2.880170042

