11

N 4.409944366 0.001121307 -0.423842288
C 2.044054161 -0.028857516 -0.189613891
C 0.293945009 2.098765191 -0.554838330
C -2.038791085 1.298194340 -0.128233073
C -1.965767022 -1.443542133 0.550435419
O 0.638862092 -2.098020752 0.460094738
H 5.160443824 -1.730577963 -0.063577341
H 0.929605943 3.961242315 -1.084952655
H -3.767513337 2.381391685 -0.230128296
H -3.011840490 -2.625236823 -0.785998511
H -2.692943480 -1.814479649 2.450654229

