11

N 3.702643556 0.167380866 -0.702042591
C 1.461616249 -0.428420301 0.272364563
C 0.759310231 2.152302379 0.300505760
C -1.123481846 0.660136421 -0.892242807
C -2.082363294 -1.422928547 0.940464630
O 0.402307744 -2.292779630 1.730984576
H 3.588976284 0.310152264 -2.607185706
H 1.455640973 3.919691641 1.011442800
H -1.830228475 0.789108509 -2.815247594
H -3.027293838 -2.927331503 -0.094413023
H -3.196984895 -0.819348247 2.564591543

