11

C 0.086257324 -2.968987057 3.132348173
C 2.336869530 -2.103175698 2.472546820
C 3.118834855 -1.544507385 -0.193755415
C 3.860825689 1.187952178 -0.547463901
O 3.199728305 2.476545367 -2.288587575
H 5.118246467 1.972835467 0.940414817
H 1.642085982 -2.013602018 -1.551564075
H 4.800659019 -2.665244007 -0.665194594
H 3.742764747 -1.746494182 3.928809059
H -1.368042661 -3.347176737 1.738069821
H -0.380168582 -3.340067322 5.090046688

