19

C -4.543304021 0.466581298 -1.340316241
C -2.359237141 1.824916191 -0.078029097
C -0.293013676 -1.538930236 1.125658225
C 2.248157338 -1.344445122 1.779436889
C 4.321059605 -1.784753690 -0.121622320
C 3.705053467 0.917042836 -0.223343480
O 2.164813670 1.880409019 -1.846104953
H -4.077525214 -0.026897662 -3.291006007
H -5.061781847 -1.278346962 -0.365169656
H -6.234073014 1.651533252 -1.396681971
H -2.710031480 2.246233125 1.902284224
H -2.109406711 3.673093946 -0.990199368
H -0.801687830 -2.489563501 -0.613791625
H -1.666949978 -1.712633672 2.626622068
H 2.758015292 -1.026148649 3.731667141
H 3.787773280 -2.883603920 -1.769057247
H 6.132813627 -2.300993117 0.682117224
H 4.782289199 2.185188054 0.998595535
H 0.032271080 1.579801138 -0.984653362

