8

C -2.840900929 -0.459841949 0.341526612
N -0.300952605 0.574908393 0.219422110
C 0.093200631 2.769186163 0.830195501
O 1.922474379 4.465217041 1.032891740
O -0.845603931 4.957928452 1.671492520
H -3.400946418 -1.064327901 -1.546400852
H -2.819550916 -2.126062379 1.551772852
H -4.248024147 0.872601825 1.059831052

