14

O 3.125852032 -2.533232105 0.375780090
C 1.670706319 -1.029788337 2.009895566
C 0.152573672 1.066960176 0.852940113
C -0.326633851 1.361937013 -1.903443609
C -2.519223887 0.209824323 -0.600495531
C -0.898997973 -1.917483858 2.440356035
H 4.662469848 -1.642824260 0.003333798
H 2.752520025 -0.346073010 3.628067253
H -0.117081894 2.724009255 2.015310161
H 0.740607044 0.128707772 -3.139824213
H -0.486271413 3.299442047 -2.538828756
H -4.049233122 1.445188633 -0.042347194
H -3.087830421 -1.652500074 -1.167468850
H -1.655493475 -0.988950524 4.129546709

