17

C -2.373165178 -1.237047432 1.837396736
C -3.542035449 0.259114919 -0.277407619
C -0.736079638 0.125250235 -0.034587260
C 0.876233198 2.365428129 0.811459245
C 3.627761665 1.706853869 0.376951834
C 3.531052059 -0.503014934 -1.071599132
C 0.914832347 -1.358719339 -1.854556999
H -2.476091908 -3.279198016 1.733251926
H -2.497785435 -0.474143642 3.732686932
H -4.458116452 2.027637203 0.194408145
H -4.436128676 -0.773746812 -1.801567037
H 0.562372630 4.013018845 -0.411087317
H 0.475469096 2.994754285 2.734573958
H 4.058886920 -0.604057286 1.265960582
H 5.228276639 -1.378378443 -1.834519250
H 0.608534199 -0.788580312 -3.822273008
H 0.645137797 -3.401335210 -1.755745204

