13

N -4.057504737 -0.576822534 -0.085705221
C -1.633996801 -0.111743342 1.073601505
C -0.364391240 2.236498333 0.077084102
C 1.986511283 1.632101066 -0.563046053
C 2.218969781 -1.110279143 -0.056921556
O 4.339011002 -2.431908411 -0.485414913
N 0.229907973 -2.137881180 0.805624016
H -3.823517620 -0.906489093 -1.956880037
H -4.823618511 -2.160545534 0.663117483
H -1.278525447 4.059450210 -0.032281492
H 3.451390597 2.851806538 -1.303192949
H 5.619638164 -1.340227272 -1.157985411
H -1.951822298 0.145914522 3.107563527

