11

C -3.698294087 0.843320821 0.532684050
N 0.499506374 -1.895867697 -0.867233302
N 3.005749657 -2.591370247 -1.283597113
C 4.358423591 -0.750086364 -0.517481978
O 2.971761420 1.203036614 0.413792819
C 0.614890784 0.322400108 0.119609402
O -1.201323294 1.828578423 0.868342893
H -4.056950820 0.478913726 -1.462989966
H -3.920593588 -0.906724099 1.596320349
H -4.964408871 2.293745658 1.244161873
H 6.385229504 -0.568071137 -0.521031961

