16

C 3.947451528 -0.333799201 1.147415832
C 0.804844070 -0.367386210 -1.611579623
C -1.128122598 -0.523793607 0.272974869
O -0.682668287 -2.230542237 2.003192141
C -2.758777740 1.809140322 0.761846772
C -3.791325153 -0.130424948 -0.968566237
H 4.652964355 0.509951665 -0.599582604
H 5.245797670 -1.885540400 1.564606719
H 4.044526627 1.132509257 2.592974020
H 1.524921243 -2.134404235 -2.352315565
H 1.030099764 1.288168152 -2.807462168
H 1.962655985 -1.414195046 1.715771033
H -3.490438518 1.869015898 2.668375831
H -2.187030065 3.603778490 -0.041907493
H -5.131503632 -1.490704727 -0.244139860
H -3.957792563 0.284993074 -2.962554240

