10

O -2.859931151 -2.692275991 2.154267411
C -2.152271690 -0.923785095 0.341530410
C 3.454642513 2.542561796 -0.929681645
C 1.891357563 0.668105150 -0.564472796
N 0.532920474 -1.149427767 -0.241892371
H -2.334235119 -4.332769255 1.581893159
H -2.612873271 0.934059460 1.113252967
H -3.171693348 -1.194142051 -1.441881329
H 4.488473315 3.331815966 0.644030455
H 3.720033250 3.307738379 -2.803910088

