17

C -3.994820575 -0.305636612 0.181934460
C -2.118367622 1.552748839 -0.909771528
C 0.090039119 2.387004285 0.760394159
C 1.426906024 1.128892718 -1.330799561
C 2.097230525 -1.585488987 -0.738735932
C 4.634480679 -1.669402464 0.570801243
O 5.612109760 0.074511693 1.635198346
H -5.066025435 0.586531399 1.701717499
H -3.065226254 -1.962246783 0.981978115
H -5.326971895 -0.951433999 -1.252374151
H -2.971061768 3.170497889 -1.847734010
H 0.327640886 4.417564139 0.925505936
H 0.076339531 1.462702993 2.605783604
H -1.065424906 0.727847613 -2.676410021
H 2.240729524 -2.755557212 -2.435944866
H 0.834003772 -2.596289375 0.580647926
H 5.561659156 -3.550724996 0.532585218

