11

C -2.223028214 -1.012542451 -0.870350783
C -0.363388230 0.392848512 0.837356052
C 2.249228775 -0.435289890 0.418574261
C 4.352519444 -1.181174089 0.072442330
C -0.828387166 5.224710065 0.162783295
N -0.585705173 3.061253388 0.472019798
H -2.070553016 -3.036799841 -0.527970506
H -4.146570477 -0.398138385 -0.468710566
H -1.793172174 -0.635980921 -2.847791059
H -0.841378031 0.023529339 2.813468776
H 6.233642137 -1.825801905 -0.234784430

