13

O -0.842656053 -2.596689014 3.957992137
C 0.515684887 -0.532181024 -1.746832216
C -1.707670325 1.323241545 -1.981492964
C -1.361589625 -0.211453191 0.272396878
C -2.103682183 -0.856409310 2.547057436
C 3.043355282 0.441599761 -1.448906858
C 5.144062582 1.252259709 -1.216601295
H -1.645619770 -2.762312473 5.570580590
H 0.385290628 -2.238185310 -2.877887404
H -3.179325140 0.827872461 -3.318310906
H -1.247556218 3.317628582 -1.896259739
H -3.776561327 -0.021940779 3.395031027
H 7.010761487 1.967451448 -1.001192567

