13

O -0.485644610 -1.093220056 3.375155663
C 0.649993486 -1.677928701 1.043300767
C -1.266568072 -1.550628472 -1.144428157
C -2.400495890 0.951881297 -1.379616365
C -3.316140990 3.018214347 -1.487216520
C 2.874187415 -0.092213514 0.529492473
C 4.667107708 1.218696718 0.104129673
H -1.048070757 0.635585118 3.309057333
H 1.277832824 -3.636878933 1.213487404
H -2.746450811 -2.939767148 -0.771779796
H -0.333674025 -2.071522049 -2.910302784
H -4.134711104 4.851137345 -1.615850857
H 6.262634807 2.386644028 -0.265428815

