13

C 3.761616012 0.231650716 0.422405889
C 0.479017378 0.611538240 0.051283123
C -0.926408488 -1.389208860 -0.501359043
N -3.599919442 -1.266756006 -0.256158026
C -4.902282953 0.828383141 -0.305638710
C 1.531006992 2.655524144 0.974485464
H 4.123200461 -0.801237830 2.150462693
H 3.837314227 -0.984188584 -1.253108423
H 5.187527190 1.677462978 0.092451563
H -0.130083210 -3.130975646 -1.202570645
H -4.396377909 -2.990669321 0.032420217
H -6.886865637 0.282064357 0.042142820
H 1.889016986 4.258093666 -0.259188958

