13

O 2.824462447 3.154580518 2.244647833
C 2.024065980 2.029438679 0.433452453
C 2.393264551 -1.435911098 -0.165668945
C 0.191219686 -0.338169192 0.795547732
C -2.429009987 0.104977348 -0.895620012
N -3.500183212 -2.057228746 -0.080201753
H 1.948730971 2.799980497 -1.494169673
H 3.566365031 -2.662882737 0.975225424
H 2.837157892 -1.306640849 -2.158222248
H -0.205189448 -0.587915208 2.786543089
H -1.768053614 0.084829296 -2.850653900
H -3.204328049 1.947965311 -0.367013953
H -4.612788929 -1.688626573 1.446996137

