13

C -3.929242694 -1.655788178 -0.107874354
C -1.441805532 -0.900584965 -1.268800633
O 0.043962589 0.325919383 0.666431231
C 4.595499730 2.282355958 0.505454287
C 2.265493913 1.076199330 -0.108137366
N 3.649946975 1.123151314 -2.014214913
H -4.944822029 -0.003488340 0.587845968
H -5.098870840 -2.593340929 -1.522985672
H -3.638784532 -2.958120924 1.462197226
H -1.686558419 0.423643300 -2.833611991
H -0.382676891 -2.531204429 -1.962783428
H 6.081863209 1.258965496 1.484509128
H 4.730150918 4.329912122 0.578281365

