17

C 4.365122198 -0.065044713 1.290826222
O 1.808205796 -0.745895348 1.033816326
C 1.036954027 -1.083504690 -1.508334625
C -1.806466436 -1.474410734 -1.571945622
C -3.392867725 0.838247530 -1.062818236
C -3.531871557 2.097170999 1.112610403
O -2.213731139 1.652335289 3.242602940
H 5.605357145 -1.531961436 0.515465678
H 4.751176124 0.148121817 3.300576582
H 4.761680904 1.726453693 0.329540948
H 1.570546847 0.579727743 -2.627966532
H 2.014277803 -2.737465976 -2.294195016
H -2.291385674 -2.216778474 -3.434394873
H -4.604059679 1.507560234 -2.569948558
H -2.256693534 -2.976142977 -0.217710056
H -4.832876336 3.665160819 1.337324370
H -0.772237223 0.584843231 2.834977866

