17

C 4.457414816 -0.903029949 1.468731654
O 1.851512329 -1.177207327 1.044258877
C 1.117450559 -0.322710118 -1.351040436
C -1.740535101 -0.419917648 -1.577030195
C -4.115384913 -0.644999979 1.030842275
C -3.143545405 1.669843923 -0.046796932
O -1.613176158 3.217553864 1.433443513
H 5.566851821 -2.006398477 0.107042535
H 4.845683047 -1.597762853 3.365908401
H 5.034804154 1.084245727 1.340531669
H 1.754548497 1.629360982 -1.647621708
H 1.952348228 -1.516818475 -2.831761986
H -2.426477886 -0.548138835 -3.505921309
H -5.706606138 -1.295712676 -0.131517568
H -2.249008906 -2.274065956 -0.525404485
H -4.303035416 2.860516475 -1.254603007
H -1.093200062 2.206042732 2.856660375

