12

C -3.638894836 -0.813186606 0.266436568
C -0.868696063 -0.462950359 0.276712048
C 0.606764376 2.000817832 -0.056506591
N 2.277539821 1.169264997 -2.032323176
C 2.897139632 -0.342750172 0.214389429
N 0.859052867 -2.136039566 0.589788928
H -4.504718138 0.245730480 1.810282511
H -4.100773531 -2.809396662 0.458651951
H -4.436985194 -0.091977279 -1.496980961
H 2.427205771 1.336141514 1.821995657
H 3.646976193 2.491290654 -2.318366201
H 4.877212504 -0.720066609 0.576867529

