15

C -3.598898726 0.409459224 -0.825726148
C -2.030608344 -1.288262317 0.859432532
N 0.522030889 -0.286107445 1.123658687
C 2.007416340 -1.529500068 -0.712492852
C 4.015713614 0.254024299 -1.145987426
N 3.828964793 2.186363256 0.421308619
C 1.676850914 1.814663841 1.769375628
H -5.447791554 -0.448133678 -1.138298868
H -3.911041041 2.297662059 -0.005038652
H -2.729674484 0.693232536 -2.680419868
H -0.062111254 -2.394375596 -1.538279698
H -2.910303124 -1.608392222 2.696380741
H 2.625143282 -3.399081221 -0.084967548
H 5.553739200 0.107559583 -2.482961743
H 0.930378085 3.167670537 3.101865001

