13

N -3.159495072 -0.213641116 -1.428247616
C -0.805409570 0.048500671 -0.301116916
O -0.420410659 2.311366277 1.214263250
C 0.133998514 -1.966275793 1.558322794
O 2.371884227 -0.665400744 2.365157653
C 2.145820770 1.522481209 0.886143621
N 1.642064987 0.545589047 -1.665684183
H -3.508916903 1.057988607 -2.803036827
H -3.541728047 -1.988691271 -2.000013489
H 0.616211343 -3.753692882 0.653436661
H -1.164307679 -2.236909424 3.133976890
H 3.611958132 2.899968646 1.278294371
H 1.324695859 2.068971069 -2.795360192

