13

N -3.182634277 -0.402611877 -1.446593663
C -1.015372977 0.208869766 -0.115475589
O -0.965779685 2.429713607 1.052228192
C 0.055987615 -1.880354689 1.611694443
O 2.326375578 -0.594761383 2.398037224
C 2.527778922 1.242293709 0.715718765
N 1.740776626 0.568228495 -1.621618339
H -3.933815000 1.066738171 -2.393322376
H -3.136136073 -2.020221408 -2.446512403
H 0.513345292 -3.628278921 0.620993579
H -1.101056410 -2.210680290 3.277887698
H 3.848245140 2.737839650 1.184062838
H 1.568653001 2.113473780 -2.740958681

