14

C -3.406094108 0.978163986 0.174918681
C -1.397327483 -1.051854971 -0.190417176
C 1.217342937 0.041358962 -0.410747318
O 1.425471098 1.547985255 -2.532598385
C 3.437527623 -1.167349401 0.693330556
O 2.302527329 1.033277716 1.805889710
H -3.025168615 2.081776288 1.874991987
H -5.272925199 0.125749028 0.369068520
H -3.449819328 2.266619509 -1.431496641
H -1.775023453 -2.149519568 -1.898611806
H -1.403671879 -2.366114119 1.399413457
H 3.262547318 -2.892907156 1.792188856
H 5.279426140 -0.855648865 -0.161434068
H 2.922711538 2.561716306 -2.373109828

