17

O 1.232685283 -3.470892042 1.650971228
C 3.313853023 -2.355870953 1.165012603
C 4.082664003 -1.384318192 -1.107255430
C 0.230704190 2.251569296 0.217442357
C -2.165560962 2.426491492 -0.797150919
C -2.030219023 -0.684533428 -1.143570863
C -4.134906558 0.633290064 0.116383678
H 4.595749363 -2.012711504 2.780987464
H 5.920811205 -0.498432764 -1.263357258
H 3.083224100 -1.813927641 -2.845318296
H 1.817987529 3.194619695 -0.650888668
H 0.551696755 1.363658327 2.030782577
H -2.489293705 3.482280778 -2.515597011
H -2.072656829 -1.037114919 -3.157968475
H -0.727432554 -1.970511633 0.037567793
H -5.914054886 0.795164741 -0.879983398
H -4.288104388 0.330327623 2.136845704

