12

N 3.170030219 0.506021885 -0.786307444
C 1.940108321 -0.466180827 1.179697986
O 2.712679742 -1.674371934 2.945464426
C -1.724840528 1.975394345 -0.983589654
C -2.309561230 -0.746482392 -1.169862415
N -0.757998609 0.099970235 1.017038978
H 5.054787857 0.342706425 -0.876776759
H 2.124066356 1.756922635 -1.834193952
H -3.272834911 3.008446447 -0.093692489
H -1.259749468 -1.916287983 -2.492288940
H -4.090157579 -1.586525596 -0.568620084
H -1.583871362 -0.147959357 2.725338639

