17

C -4.196506396 -0.605235455 0.093640333
C -1.580949827 2.371557229 -1.179107881
C 0.042465963 2.841793692 1.083657172
C 0.983184044 1.195599049 -1.027452201
C 1.611229476 -1.534099586 -0.557569721
C 4.362100979 -1.993750880 0.020574129
O 5.972752501 -0.401530027 0.057291280
H -6.224177123 -0.268999963 -0.062152261
H -3.610505801 -0.616329943 2.052664396
H -3.637327950 -2.284085492 -0.941564205
H -3.663939697 1.345623782 -1.235883588
H 0.734817056 4.757381834 1.306014990
H -0.328279424 1.898241212 2.863488202
H 2.266283856 2.067272527 -2.374304588
H 1.151838736 -2.723234335 -2.195662239
H 0.530715541 -2.328825344 1.016883265
H 4.841445488 -3.999330558 0.417632743

