11

N 3.742404112 -0.274472062 0.407974787
C 1.361715480 -0.698393624 -0.131402919
C 0.119864818 1.723601416 -0.437727146
N -2.417023322 0.987575975 0.214810838
C -2.447105040 -1.539000345 0.396024896
N -0.255720555 -2.688912562 0.115700712
H 5.072087865 -1.634605029 0.194139521
H 2.698196787 2.066868560 0.507664662
H 0.253325365 2.561921398 -2.314863499
H -3.962164256 2.083352377 0.242593742
H -4.180872918 -2.545574133 0.815389082

