14

N 3.453848432 1.194447525 3.256526386
C 1.040756534 0.918512324 2.423534108
O -0.699376074 2.126553897 3.292942806
C 0.700161708 -1.024168518 0.338146705
C -1.966062840 -1.090128747 -0.633976942
C -2.715962971 0.296615022 -2.887421847
O -2.312596527 -2.356320859 -2.971487958
H 3.789276028 2.422897989 4.663212227
H 4.887372768 0.176049512 2.553975043
H 1.217623334 -2.886667922 1.075273818
H 1.998902368 -0.620552725 -1.217170291
H -3.406762882 -1.482239964 0.773827201
H -1.322577136 1.426767847 -3.887639769
H -4.664602744 0.898234580 -3.107815106

