21

C 4.424330076 -1.031114528 -0.001262885
C 1.808889839 -1.718444580 -0.986891592
C -0.079684630 0.651005623 1.206859341
C 0.968723028 3.294382532 0.986071281
C -1.184853801 -0.181154192 -2.004832026
C -2.709789500 0.552848845 0.235183786
C -4.492906234 -1.416256435 1.292728742
H 5.718526871 -2.552686269 -0.535503937
H 5.150611334 0.694046347 -0.864508978
H 4.430103530 -0.809507517 2.043943631
H 2.137352756 -2.100888695 -3.003926997
H 1.166109608 -3.470679221 -0.133506429
H 3.017387063 3.404286018 1.134542319
H 0.204038435 4.257095702 2.650595058
H 0.362042821 4.395700877 -0.671136044
H -0.740839121 1.292691873 -3.353167830
H -1.777061333 -1.941844374 -2.862652999
H -3.585954744 2.403896868 0.009131081
H -5.112548262 -0.890326473 3.187883010
H -3.550164257 -3.245693417 1.436416486
H -6.165750060 -1.635751072 0.098893110

