10

C 1.273788036 1.864635362 -0.305324070
C 2.745518609 -0.359014459 -0.184374890
N 1.503009793 -2.550024344 0.147026759
N -0.974763084 -2.897753434 0.467653850
C -2.323565423 -0.833837797 0.229622681
C -1.290220168 1.586506907 -0.182427300
H 2.155312335 3.699612473 -0.511468927
H 3.743949832 -2.660819780 0.348851720
H -4.348960353 -1.086881272 0.411460425
H -2.558220558 3.187353093 -0.344839718

