13

C -0.934302252 0.508195581 -2.389227132
H -2.387730658 0.920099600 -3.770985558
C 0.344445294 2.229798536 -1.095039673
H 0.087558514 4.253986479 -1.265157732
C 2.309270288 1.053441056 0.594659905
H 2.308641254 1.849096843 2.499463776
H 4.203458868 1.377569243 -0.177580247
C 1.594056514 -1.770839996 0.566066213
H 3.241321233 -3.008304831 0.588789112
H 0.477397240 -2.207730125 2.245388134
C -0.059331372 -2.135937407 -1.804790815
H -1.621378911 -3.446030313 -1.480328336
H 1.024717994 -2.898453483 -3.396260483

