16

O -3.908508411 0.786981755 1.342079544
C -1.524222856 0.484344573 -1.456295328
C -0.313579868 -2.059937234 -1.205815437
C 1.738664026 -1.649969012 0.800476742
C 2.503415647 1.130388776 0.465483046
C 0.056104570 2.364405050 -0.407943928
H -4.191915778 -0.589475744 2.501435725
H -2.994511871 0.831654559 -2.831125678
H -1.633320090 -3.588277218 -0.807651825
H 0.554736096 -2.459747913 -3.047389375
H 3.313099835 -2.962339284 0.601316843
H 0.927300968 -1.929231511 2.678863906
H 3.249083019 1.944497739 2.206428066
H 3.983668942 1.311220770 -0.972164162
H -1.814979784 2.039576984 1.332934593
H 0.011781516 4.280150871 -1.129822785

