13

C -2.471549007 0.925733516 1.348120035
C 0.758692895 -2.773510026 -3.277508185
C 0.061469125 1.753705698 0.220768502
C 2.035724891 -0.263209691 0.545954973
O 3.515468054 -0.330506636 2.259376075
N 2.113866181 -2.299811263 -1.255122927
H -3.226543991 -0.738067101 0.393503189
H -2.263556339 0.479236586 3.349317570
H -3.853116797 2.442309992 1.168035541
H -0.604441165 -1.205781592 -3.482371315
H -0.159121667 2.248755607 -1.767347858
H 0.777476187 3.406808991 1.216068487
H 3.483770015 -3.551045456 -0.762459969

