13

C -2.986752901 0.281471267 -0.272303809
N -0.925077970 0.674680244 1.372646091
C 0.316954428 -1.659391073 1.885413448
C 2.293961408 -1.811996436 0.346629421
C 2.228408566 0.528236410 -1.189284964
C 0.771479462 2.256324565 0.232777749
H -4.468384354 -0.947026156 0.453881809
H -0.088582972 -0.170595101 -2.350532287
H -3.658482754 1.965249974 -1.233364488
H -0.574182568 -3.028131989 3.104241067
H 3.558883265 -3.385256154 0.075254923
H 3.731381547 1.041127128 -2.478732423
H 0.038819699 4.025750951 -0.484297103

