10

N 2.779405934 1.483783265 0.452114897
C 2.264437027 -0.817752770 0.596576182
O 0.100192467 -1.829414230 -0.346568193
C -1.708941110 -0.199299153 -1.231274300
C -4.273355094 -0.398814396 0.932854155
N -3.376181463 1.594216177 1.402677089
H 4.472224202 1.872261748 1.255674179
H 3.393155361 -2.326043667 1.424884886
H -2.753211967 -1.069878971 -2.760091308
H -0.963990492 1.643749848 -1.732108585

