13

C -2.527658415 -1.422052565 -1.308946050
C -1.289703139 2.632475872 0.996106690
C -0.536717425 0.629137694 -0.909284508
C 1.931695732 -0.304124302 0.124622884
O 3.255585132 -2.124478373 -0.988864069
N 2.612975581 0.811677886 2.147533674
N 0.602205147 2.551622183 2.563050472
H -2.963353764 -2.373899337 0.466816153
H -1.863299495 -2.831323438 -2.657250995
H -4.262009273 -0.576036560 -2.022782686
H -0.188812893 1.598248418 -2.707930766
H 4.761028249 -2.428618624 -0.008657081
H 0.797122573 3.633904334 4.115653707

