13

C -3.753627800 -0.953932595 1.694845208
C -1.434883049 -1.169252317 0.773103625
C 0.906784401 -0.580861862 2.162012793
H 0.632420091 0.070296149 4.084916991
C 3.241068142 -2.137159399 1.678554295
H 4.446149478 -2.566552418 3.273104273
H 3.095818728 -3.639719644 0.297540459
C 3.122684549 0.528104904 0.760123644
H 2.897802113 0.846764677 -1.248422336
H 4.242496717 1.942214553 1.721895485
H -1.182480835 -1.831049826 -1.158975382
H -4.090373216 -0.304120731 3.609829090
H -5.395396251 -1.422538905 0.567577031

