16

C -3.742525848 -0.355630262 1.369754073
C -1.291825075 -0.296607576 0.290843212
O -1.885077549 3.090090061 -1.007141349
C 1.001628715 0.053250800 1.806357247
C 2.917802313 -2.069536381 1.725587688
C 3.500493108 0.424357314 0.544706998
H -3.879652974 -0.240680716 3.410751772
H -5.158424312 -1.508818282 0.441646381
H -3.633842993 1.956730824 0.219826776
H -0.994132928 -1.176426946 -1.540834343
H -2.148045998 3.215335383 -2.805169137
H 0.708533327 0.963033440 3.615399946
H 3.828714253 -2.570900999 3.485216922
H 2.525514218 -3.656730694 0.496111519
H 3.493765022 0.555830058 -1.496591999
H 4.841785601 1.654611880 1.473236024

