8

O -3.742667048 1.329591761 -1.298038532
C -2.278132760 0.488347485 0.058603639
C -0.113983744 -1.308047542 0.139659264
C 1.804085003 0.886639164 0.075364905
N 3.868411825 0.987958267 -0.820134543
H 0.575279271 2.449540444 1.199173541
H -0.169099553 -2.747373394 -1.348934715
H 0.080990922 -2.131493754 2.016512612

