14

C 3.339060552 1.564115920 -1.027814669
N 0.684160566 1.139765333 -0.616499319
C -0.286943517 -0.831979044 0.419380456
N 0.784400143 -2.889344323 1.343099297
C -3.200838821 -0.657892144 0.554013465
O -4.361728514 -2.428507187 1.508879905
N -3.786652030 1.518346148 -0.467833809
H 4.150584444 0.118291130 -2.265251121
H 4.385896732 1.570120392 0.756465890
H 3.601602924 3.393521382 -1.927854977
H -0.435575447 -4.172106781 2.059737830
H 2.652354620 -3.203891088 1.352095111
H -1.302839513 2.223791247 -0.997990388
H -5.634881640 1.963915676 -0.547713703

