19

C 5.025763837 -1.030266702 0.982907785
C 3.016875873 0.020338329 -0.787303840
C 0.351617825 -0.254257737 0.251269929
O 0.263602432 1.020015335 2.600834922
C -1.628843424 0.770698684 -1.582274298
C -4.320869517 0.077883021 -0.893564462
O -4.909539917 1.130401230 1.514747694
H 6.911807301 -0.813807778 0.176265074
H 4.979497257 -0.055580833 2.796295531
H 4.718271854 -3.041986270 1.338288451
H 3.108522714 -0.943798258 -2.614790096
H 3.367032448 2.028431228 -1.142230292
H -0.025403380 -2.285098460 0.549076763
H -1.489698883 1.191614108 3.060927543
H -1.257537563 0.026873077 -3.475487137
H -1.444243316 2.828332379 -1.680034744
H -4.515436003 -1.986459372 -0.833864386
H -5.631304067 0.802562868 -2.324400588
H -6.520115471 0.514105132 2.063336133

