10

C 0.727484143 -1.806487752 1.882426453
H 2.311696771 -2.890448943 2.620428377
H -0.787853466 -1.733160255 3.270742946
C -0.061674992 -2.394813295 -0.836858903
H 1.031565851 -3.843923053 -1.809309132
H -2.076528519 -2.676418071 -1.156850781
O 0.713459390 0.109769126 -1.624822748
C 1.444722645 0.736780746 0.768395883
N 2.352683287 2.819447246 1.400195671
H 2.755718122 2.853066532 3.273090874

