14

O 2.845150432 3.065159963 -0.392287717
C 2.111860067 0.484212632 -0.280615826
C -0.706272270 0.402428535 -0.798713534
O -2.001799885 2.012756593 0.899463261
C -1.813059236 -2.222487034 -0.453131720
O -1.583682730 -3.079541988 2.057364957
H 4.467849411 3.261366069 0.382262229
H 3.116843840 -0.634357306 -1.705701684
H 2.487425030 -0.317446191 1.588334744
H -1.040156527 1.015151936 -2.755360718
H -1.010100225 3.530334889 1.043840492
H -3.798831050 -2.181373718 -1.044923418
H -0.817760574 -3.574349671 -1.653758140
H -2.257466261 -1.761854726 3.113227074

