14

O 2.009741043 1.755304142 0.764984039
C 3.043576493 -0.289932686 -1.069322220
C -0.677481007 0.737238551 -0.979354495
O -2.285215699 2.593843086 0.030097649
C -1.727083293 -1.750884318 -0.034186034
O -1.163543228 -2.075373008 2.566241765
H 1.625563332 0.856939208 2.311277025
H 4.286678552 0.790937537 -2.313002799
H 4.190438976 -1.566025866 0.081313441
H -0.473674763 0.978199097 -2.996988452
H -1.718592980 4.231785863 -0.503976824
H -3.780525670 -1.715524084 -0.312150479
H -0.887097272 -3.305963246 -1.066844751
H -2.395478932 -1.144977065 3.517728299

