8

C 2.450971193 1.855825364 -0.561335284
C 1.534826355 -0.635480389 -0.460160273
C -0.981740614 -1.078459178 -0.614767971
C -2.808944753 0.840064351 -1.107487016
N -4.386389629 2.273318626 -1.527397181
H 3.842540812 2.170674618 0.953496446
H 2.777040356 -2.234519544 -0.071135490
H -1.741324023 -2.933463021 -0.195248903

