8

C 3.628050151 1.055641397 -0.288531322
C 1.584420706 0.097902383 -0.267920967
C -0.905429032 -1.098224920 -0.231207651
C -2.938192174 0.619283887 -0.999211793
N -4.558062649 1.928917438 -1.589478274
H 5.444266307 1.921211815 -0.308817343
H -1.329155197 -1.791218972 1.667222193
H -0.925898111 -2.733513028 -1.491661345

