10

C -2.974881169 0.172294154 0.114938699
C -0.375965586 -0.816288119 -0.433146525
N 1.437688537 1.224830051 -0.504169047
C 3.804630355 0.555258700 0.524732347
N 4.052781650 0.211829795 -1.750541370
O 0.145044814 -2.978701345 -0.837690269
H -2.948410925 1.346429939 1.809904887
H -4.285959416 -1.392031034 0.341630282
H -3.570849181 1.380650687 -1.446257556
H 4.724080778 0.446748433 2.343358774

