15

C -2.576422892 -2.174047117 0.253574355
C -1.559769928 0.099211642 -0.393963696
C -1.655501620 2.026712919 -2.351966703
N -1.790927407 2.643594586 0.374613581
C 2.481588441 -0.572644104 0.249743465
O 2.403137671 -2.878262118 1.010896594
N 4.762066502 0.440682961 0.284101936
H -3.382225015 -2.443804331 2.117184502
H -3.030136440 -3.532080429 -1.207783682
H 0.500055226 -3.275076296 0.900352453
H 0.044116866 2.671746989 -3.288354325
H -3.376964225 2.137758990 -3.460761636
H -3.580832887 3.008336370 0.947135458
H 4.969539023 2.259058942 -0.204940628
H 6.301414273 -0.507311812 0.904973514

