25

C     2.89791   0.90943   1.35012
N     1.70105   0.30087   0.81053
C     1.76331  -0.78905   0.02685
O     2.82690  -1.33812  -0.30455
C     0.47559  -1.47093  -0.31312
C     0.42710   0.21206  -2.49829
C    -0.29150   1.16013  -1.99997
N    -0.98333   0.21586   0.36400
C    -2.28053   0.54426   0.66506
C    -3.21933  -0.53374   1.13627
O    -2.60870   1.72986   0.61518
N    -0.72213  -0.99231  -0.07331
H     2.60499   1.70441   2.05065
H     3.52795   1.34211   0.56336
H     3.50732   0.16907   1.90218
H     0.78515   0.73170   0.91467
H     0.57133  -2.35118  -0.92964
H     1.51287   0.15331  -2.34108
H    -0.01887  -0.70194  -2.95144
H    -1.42251   1.15097  -2.04318
H     0.09448   1.98150  -1.37713
H    -3.47249  -1.19928   0.31719
H    -2.69623  -1.12741   1.91601
H    -4.10022  -0.06438   1.54317
H    -1.48375  -1.64556  -0.34532
25

C     2.89791   0.90900   1.35112
N     1.70134   0.29974   0.81141
C     1.76430  -0.78809   0.02508
O     2.82808  -1.33799  -0.30354
C     0.47728  -1.45596  -0.33585
C     0.42595   0.19572  -2.47624
C    -0.29919   1.15195  -1.97913
N    -0.98463   0.21971   0.34787
C    -2.27903   0.54746   0.66137
C    -3.21494  -0.53198   1.13682
O    -2.60986   1.73247   0.61342
N    -0.72190  -0.99618  -0.07065
H     2.60491   1.70430   2.05089
H     3.52789   1.34202   0.56361
H     3.50742   0.16911   1.90255
H     0.78539   0.73163   0.91483
H     0.57304  -2.34781  -0.93406
H     1.51156   0.15460  -2.34135
H    -0.01924  -0.70124  -2.95114
H    -1.42280   1.15137  -2.04420
H     0.09326   1.98075  -1.37554
H    -3.47160  -1.19869   0.31742
H    -2.69427  -1.12699   1.91562
H    -4.09864  -0.06391   1.54408
H    -1.48305  -1.64441  -0.34947
25

C     2.89791   0.90857   1.35213
N     1.70162   0.29862   0.81229
C     1.76529  -0.78713   0.02331
O     2.82925  -1.33787  -0.30252
C     0.47896  -1.44099  -0.35858
C     0.42480   0.17939  -2.45420
C    -0.30689   1.14376  -1.95830
N    -0.98592   0.22355   0.33173
C    -2.27753   0.55066   0.65769
C    -3.21055  -0.53021   1.13737
O    -2.61102   1.73507   0.61167
N    -0.72167  -1.00005  -0.06800
H     2.60483   1.70419   2.05114
H     3.52782   1.34192   0.56386
H     3.50752   0.16914   1.90293
H     0.78563   0.73156   0.91499
H     0.57476  -2.34444  -0.93847
H     1.51025   0.15588  -2.34162
H    -0.01961  -0.70054  -2.95083
H    -1.42308   1.15178  -2.04522
H     0.09204   1.98000  -1.37396
H    -3.47071  -1.19810   0.31765
H    -2.69232  -1.12656   1.91524
H    -4.09707  -0.06344   1.54498
H    -1.48236  -1.64325  -0.35363
25

C     2.89791   0.90814   1.35314
N     1.70191   0.29749   0.81317
C     1.76628  -0.78617   0.02154
O     2.83042  -1.33775  -0.30150
C     0.48065  -1.42602  -0.38131
C     0.42365   0.16305  -2.43215
C    -0.31458   1.13558  -1.93746
N    -0.98722   0.22739   0.31559
C    -2.27603   0.55387   0.65400
C    -3.20617  -0.52845   1.13792
O    -2.61218   1.73768   0.60992
N    -0.72144  -1.00392  -0.06534
H     2.60474   1.70408   2.05138
H     3.52775   1.34183   0.56412
H     3.50763   0.16918   1.90330
H     0.78588   0.73149   0.91515
H     0.57648  -2.34107  -0.94289
H     1.50894   0.15717  -2.34189
H    -0.01998  -0.69984  -2.95053
H    -1.42336   1.15218  -2.04624
H     0.09083   1.97925  -1.37238
H    -3.46983  -1.19750   0.31787
H    -2.69036  -1.12614   1.91485
H    -4.09549  -0.06297   1.54588
H    -1.48166  -1.64210  -0.35778
25

C     2.89791   0.90771   1.35414
N     1.70220   0.29636   0.81405
C     1.76726  -0.78521   0.01977
O     2.83159  -1.33763  -0.30049
C     0.48234  -1.41105  -0.40404
C     0.42250   0.14672  -2.41010
C    -0.32228   1.12740  -1.91663
N    -0.98852   0.23123   0.29946
C    -2.27453   0.55707   0.65031
C    -3.20178  -0.52668   1.13847
O    -2.61334   1.74028   0.60817
N    -0.72122  -1.00779  -0.06269
H     2.60466   1.70397   2.05162
H     3.52768   1.34173   0.56437
H     3.50773   0.16922   1.90368
H     0.78612   0.73142   0.91531
H     0.57820  -2.33770  -0.94731
H     1.50763   0.15846  -2.34216
H    -0.02035  -0.69913  -2.95023
H    -1.42364   1.15258  -2.04726
H     0.08961   1.97851  -1.37079
H    -3.46894  -1.19691   0.31810
H    -2.68841  -1.12571   1.91447
H    -4.09392  -0.06250   1.54679
H    -1.48097  -1.64095  -0.36194
25

C     2.89791   0.90728   1.35515
N     1.70249   0.29523   0.81493
C     1.76825  -0.78425   0.01799
O     2.83277  -1.33751  -0.29947
C     0.48402  -1.39608  -0.42677
C     0.42135   0.13038  -2.38806
C    -0.32998   1.11921  -1.89579
N    -0.98982   0.23508   0.28332
C    -2.27303   0.56028   0.64662
C    -3.19739  -0.52492   1.13903
O    -2.61450   1.74289   0.60642
N    -0.72099  -1.01166  -0.06003
H     2.60458   1.70385   2.05187
H     3.52762   1.34164   0.56462
H     3.50784   0.16926   1.90406
H     0.78636   0.73135   0.91548
H     0.57991  -2.33433  -0.95172
H     1.50631   0.15975  -2.34243
H    -0.02072  -0.69843  -2.94992
H    -1.42393   1.15299  -2.04828
H     0.08840   1.97776  -1.36921
H    -3.46805  -1.19632   0.31833
H    -2.68645  -1.12529   1.91408
H    -4.09234  -0.06203   1.54769
H    -1.48027  -1.63980  -0.36610
25

C     2.89791   0.90685   1.35616
N     1.70277   0.29411   0.81581
C     1.76924  -0.78329   0.01622
O     2.83394  -1.33738  -0.29845
C     0.48571  -1.38111  -0.44950
C     0.42020   0.11405  -2.36601
C    -0.33767   1.11103  -1.87496
N    -0.99112   0.23892   0.26718
C    -2.27152   0.56348   0.64293
C    -3.19300  -0.52315   1.13958
O    -2.61566   1.74549   0.60467
N    -0.72076  -1.01554  -0.05738
H     2.60449   1.70374   2.05211
H     3.52755   1.34155   0.56487
H     3.50794   0.16930   1.90443
H     0.78660   0.73128   0.91564
H     0.58163  -2.33096  -0.95614
H     1.50500   0.16104  -2.34270
H    -0.02108  -0.69773  -2.94962
H    -1.42421   1.15339  -2.04930
H     0.08718   1.97701  -1.36762
H    -3.46716  -1.19572   0.31855
H    -2.68450  -1.12486   1.91370
H    -4.09076  -0.06156   1.54860
H    -1.47957  -1.63865  -0.37025
25

C     2.89791   0.90642   1.35716
N     1.70306   0.29298   0.81669
C     1.77022  -0.78233   0.01445
O     2.83511  -1.33726  -0.29743
C     0.48739  -1.36614  -0.47223
C     0.41905   0.09771  -2.34396
C    -0.34537   1.10285  -1.85412
N    -0.99242   0.24276   0.25105
C    -2.27002   0.56668   0.63925
C    -3.18861  -0.52139   1.14013
O    -2.61683   1.74810   0.60291
N    -0.72053  -1.01941  -0.05472
H     2.60441   1.70363   2.05235
H     3.52748   1.34145   0.56512
H     3.50805   0.16934   1.90481
H     0.78684   0.73121   0.91580
H     0.58335  -2.32758  -0.96056
H     1.50369   0.16233  -2.34297
H    -0.02145  -0.69703  -2.94931
H    -1.42449   1.15379  -2.05032
H     0.08596   1.97626  -1.36604
H    -3.46627  -1.19513   0.31878
H    -2.68254  -1.12444   1.91331
H    -4.08919  -0.06109   1.54950
H    -1.47888  -1.63750  -0.37441
25

C     2.89791   0.90599   1.35817
N     1.70335   0.29185   0.81757
C     1.77121  -0.78137   0.01268
O     2.83629  -1.33714  -0.29642
C     0.48908  -1.35117  -0.49496
C     0.41790   0.08138  -2.32191
C    -0.35307   1.09467  -1.83329
N    -0.99371   0.24660   0.23491
C    -2.26852   0.56989   0.63556
C    -3.18422  -0.51962   1.14068
O    -2.61799   1.75070   0.60116
N    -0.72031  -1.02328  -0.05207
H     2.60433   1.70352   2.05259
H     3.52741   1.34136   0.56537
H     3.50815   0.16938   1.90518
H     0.78708   0.73114   0.91596
H     0.58507  -2.32421  -0.96498
H     1.50238   0.16361  -2.34324
H    -0.02182  -0.69632  -2.94901
H    -1.42477   1.15420  -2.05134
H     0.08475   1.97551  -1.36445
H    -3.46539  -1.19454   0.31901
H    -2.68059  -1.12401   1.91293
H    -4.08761  -0.06061   1.55041
H    -1.47818  -1.63635  -0.37856
25

C     2.89791   0.90556   1.35918
N     1.70364   0.29072   0.81845
C     1.77220  -0.78041   0.01091
O     2.83746  -1.33702  -0.29540
C     0.49076  -1.33620  -0.51769
C     0.41675   0.06505  -2.29987
C    -0.36076   1.08648  -1.81245
N    -0.99501   0.25044   0.21877
C    -2.26702   0.57309   0.63187
C    -3.17983  -0.51785   1.14123
O    -2.61915   1.75331   0.59941
N    -0.72008  -1.02715  -0.04941
H     2.60424   1.70341   2.05284
H     3.52735   1.34126   0.56562
H     3.50826   0.16942   1.90556
H     0.78732   0.73107   0.91613
H     0.58678  -2.32084  -0.96939
H     1.50107   0.16490  -2.34351
H    -0.02219  -0.69562  -2.94871
H    -1.42505   1.15460  -2.05236
H     0.08353   1.97476  -1.36287
H    -3.46450  -1.19394   0.31924
H    -2.67863  -1.12359   1.91254
H    -4.08604  -0.06014   1.55131
H    -1.47749  -1.63520  -0.38272
25

C     2.89791   0.90513   1.36018
N     1.70393   0.28960   0.81934
C     1.77318  -0.77945   0.00914
O     2.83863  -1.33689  -0.29438
C     0.49245  -1.32123  -0.54042
C     0.41560   0.04871  -2.27782
C    -0.36846   1.07830  -1.79162
N    -0.99631   0.25429   0.20264
C    -2.26552   0.57630   0.62818
C    -3.17544  -0.51609   1.14178
O    -2.62031   1.75591   0.59766
N    -0.71985  -1.03102  -0.04676
H     2.60416   1.70330   2.05308
H     3.52728   1.34117   0.56588
H     3.50836   0.16946   1.90594
H     0.78756   0.73100   0.91629
H     0.58850  -2.31747  -0.97381
H     1.49976   0.16619  -2.34378
H    -0.02256  -0.69492  -2.94840
H    -1.42534   1.15501  -2.05338
H     0.08231   1.97401  -1.36128
H    -3.46361  -1.19335   0.31946
H    -2.67668  -1.12316   1.91216
H    -4.08446  -0.05967   1.55222
H    -1.47679  -1.63405  -0.38688
25

C     2.89791   0.90470   1.36119
N     1.70421   0.28847   0.82022
C     1.77417  -0.77849   0.00737
O     2.83980  -1.33677  -0.29336
C     0.49414  -1.30626  -0.56315
C     0.41445   0.03238  -2.25577
C    -0.37616   1.07012  -1.77078
N    -0.99761   0.25813   0.18650
C    -2.26402   0.57950   0.62449
C    -3.17106  -0.51432   1.14233
O    -2.62147   1.75852   0.59591
N    -0.71962  -1.03489  -0.04410
H     2.60408   1.70319   2.05332
H     3.52721   1.34107   0.56613
H     3.50846   0.16950   1.90631
H     0.78780   0.73093   0.91645
H     0.59022  -2.31410  -0.97823
H     1.49845   0.16748  -2.34405
H    -0.02293  -0.69422  -2.94810
H    -1.42562   1.15541  -2.05440
H     0.08110   1.97327  -1.35970
H    -3.46272  -1.19275   0.31969
H    -2.67472  -1.12274   1.91177
H    -4.08289  -0.05920   1.55312
H    -1.47609  -1.63290  -0.39103
25

C     2.89792   0.90427   1.36220
N     1.70450   0.28734   0.82110
C     1.77516  -0.77753   0.00560
O     2.84098  -1.33665  -0.29235
C     0.49582  -1.29129  -0.58588
C     0.41330   0.01604  -2.23373
C    -0.38385   1.06194  -1.74995
N    -0.99891   0.26197   0.17036
C    -2.26252   0.58270   0.62080
C    -3.16667  -0.51256   1.14288
O    -2.62263   1.76112   0.59416
N    -0.71940  -1.03876  -0.04144
H     2.60399   1.70308   2.05357
H     3.52714   1.34098   0.56638
H     3.50857   0.16954   1.90669
H     0.78804   0.73086   0.91661
H     0.59193  -2.31073  -0.98264
H     1.49714   0.16877  -2.34433
H    -0.02330  -0.69351  -2.94780
H    -1.42590   1.15581  -2.05542
H     0.07988   1.97252  -1.35811
H    -3.46183  -1.19216   0.31992
H    -2.67277  -1.12232   1.91139
H    -4.08131  -0.05873   1.55403
H    -1.47540  -1.63175  -0.39519
25

C     2.89792   0.90384   1.36320
N     1.70479   0.28621   0.82198
C     1.77614  -0.77658   0.00383
O     2.84215  -1.33653  -0.29133
C     0.49751  -1.27632  -0.60861
C     0.41215  -0.00029  -2.21168
C    -0.39155   1.05375  -1.72911
N    -1.00020   0.26581   0.15423
C    -2.26102   0.58591   0.61712
C    -3.16228  -0.51079   1.14344
O    -2.62379   1.76373   0.59240
N    -0.71917  -1.04263  -0.03879
H     2.60391   1.70297   2.05381
H     3.52708   1.34088   0.56663
H     3.50867   0.16958   1.90706
H     0.78828   0.73079   0.91677
H     0.59365  -2.30736  -0.98706
H     1.49583   0.17006  -2.34460
H    -0.02367  -0.69281  -2.94749
H    -1.42618   1.15622  -2.05644
H     0.07867   1.97177  -1.35653
H    -3.46095  -1.19157   0.32015
H    -2.67081  -1.12189   1.91100
H    -4.07973  -0.05826   1.55493
H    -1.47470  -1.63060  -0.39934
25

C     2.89792   0.90341   1.36421
N     1.70508   0.28509   0.82286
C     1.77713  -0.77562   0.00206
O     2.84332  -1.33640  -0.29031
C     0.49919  -1.26135  -0.63135
C     0.41100  -0.01663  -2.18963
C    -0.39925   1.04557  -1.70827
N    -1.00150   0.26966   0.13809
C    -2.25952   0.58911   0.61343
C    -3.15789  -0.50903   1.14399
O    -2.62495   1.76633   0.59065
N    -0.71894  -1.04650  -0.03613
H     2.60383   1.70286   2.05405
H     3.52701   1.34079   0.56688
H     3.50878   0.16962   1.90744
H     0.78852   0.73072   0.91694
H     0.59537  -2.30399  -0.99148
H     1.49451   0.17134  -2.34487
H    -0.02403  -0.69211  -2.94719
H    -1.42647   1.15662  -2.05745
H     0.07745   1.97102  -1.35495
H    -3.46006  -1.19097   0.32037
H    -2.66886  -1.12147   1.91062
H    -4.07816  -0.05779   1.55584
H    -1.47400  -1.62945  -0.40350
25

C     2.89792   0.90298   1.36522
N     1.70537   0.28396   0.82374
C     1.77812  -0.77466   0.00029
O     2.84449  -1.33628  -0.28930
C     0.50088  -1.24639  -0.65408
C     0.40985  -0.03296  -2.16759
C    -0.40694   1.03739  -1.68744
N    -1.00280   0.27350   0.12195
C    -2.25802   0.59232   0.60974
C    -3.15350  -0.50726   1.14454
O    -2.62611   1.76894   0.58890
N    -0.71872  -1.05037  -0.03348
H     2.60374   1.70275   2.05429
H     3.52694   1.34070   0.56713
H     3.50888   0.16966   1.90782
H     0.78876   0.73065   0.91710
H     0.59709  -2.30062  -0.99590
H     1.49320   0.17263  -2.34514
H    -0.02440  -0.69141  -2.94688
H    -1.42675   1.15702  -2.05847
H     0.07623   1.97027  -1.35336
H    -3.45917  -1.19038   0.32060
H    -2.66690  -1.12104   1.91023
H    -4.07658  -0.05732   1.55674
H    -1.47331  -1.62829  -0.40766
25

C     2.89792   0.90255   1.36622
N     1.70565   0.28283   0.82462
C     1.77911  -0.77370  -0.00149
O     2.84567  -1.33616  -0.28828
C     0.50256  -1.23142  -0.67681
C     0.40870  -0.04930  -2.14554
C    -0.41464   1.02920  -1.66660
N    -1.00410   0.27734   0.10582
C    -2.25652   0.59552   0.60605
C    -3.14911  -0.50549   1.14509
O    -2.62727   1.77154   0.58715
N    -0.71849  -1.05424  -0.03082
H     2.60366   1.70264   2.05454
H     3.52687   1.34060   0.56738
H     3.50899   0.16970   1.90819
H     0.78900   0.73058   0.91726
H     0.59880  -2.29725  -1.00031
H     1.49189   0.17392  -2.34541
H    -0.02477  -0.69070  -2.94658
H    -1.42703   1.15743  -2.05949
H     0.07502   1.96952  -1.35178
H    -3.45828  -1.18979   0.32083
H    -2.66495  -1.12062   1.90985
H    -4.07501  -0.05685   1.55765
H    -1.47261  -1.62714  -0.41181
25

C     2.89792   0.90212   1.36723
N     1.70594   0.28170   0.82550
C     1.78009  -0.77274  -0.00326
O     2.84684  -1.33604  -0.28726
C     0.50425  -1.21645  -0.69954
C     0.40755  -0.06563  -2.12349
C    -0.42234   1.02102  -1.64577
N    -1.00540   0.28118   0.08968
C    -2.25502   0.59872   0.60236
C    -3.14472  -0.50373   1.14564
O    -2.62843   1.77415   0.58540
N    -0.71826  -1.05811  -0.02817
H     2.60358   1.70253   2.05478
H     3.52681   1.34051   0.56764
H     3.50909   0.16974   1.90857
H     0.78924   0.73051   0.91742
H     0.60052  -2.29388  -1.00473
H     1.49058   0.17521  -2.34568
H    -0.02514  -0.69000  -2.94628
H    -1.42731   1.15783  -2.06051
H     0.07380   1.96878  -1.35019
H    -3.45739  -1.18919   0.32105
H    -2.66299  -1.12019   1.90946
H    -4.07343  -0.05638   1.55855
H    -1.47192  -1.62599  -0.41597
25

C     2.89792   0.90169   1.36823
N     1.70623   0.28057   0.82638
C     1.78108  -0.77178  -0.00503
O     2.84801  -1.33591  -0.28624
C     0.50594  -1.20148  -0.72227
C     0.40641  -0.08197  -2.10145
C    -0.43003   1.01284  -1.62493
N    -1.00670   0.28502   0.07354
C    -2.25352   0.60193   0.59867
C    -3.14033  -0.50196   1.14619
O    -2.62959   1.77675   0.58365
N    -0.71803  -1.06198  -0.02551
H     2.60349   1.70242   2.05502
H     3.52674   1.34041   0.56789
H     3.50919   0.16978   1.90894
H     0.78948   0.73044   0.91758
H     0.60224  -2.29051  -1.00915
H     1.48927   0.17650  -2.34595
H    -0.02551  -0.68930  -2.94597
H    -1.42760   1.15824  -2.06153
H     0.07259   1.96803  -1.34861
H    -3.45651  -1.18860   0.32128
H    -2.66104  -1.11977   1.90908
H    -4.07185  -0.05591   1.55946
H    -1.47122  -1.62484  -0.42012
25

C     2.89792   0.90126   1.36924
N     1.70652   0.27945   0.82726
C     1.78207  -0.77082  -0.00680
O     2.84919  -1.33579  -0.28523
C     0.50762  -1.18651  -0.74500
C     0.40526  -0.09830  -2.07940
C    -0.43773   1.00466  -1.60410
N    -1.00799   0.28887   0.05741
C    -2.25202   0.60513   0.59499
C    -3.13594  -0.50020   1.14674
O    -2.63075   1.77936   0.58189
N    -0.71781  -1.06586  -0.02286
H     2.60341   1.70231   2.05527
H     3.52667   1.34032   0.56814
H     3.50930   0.16982   1.90932
H     0.78973   0.73037   0.91775
H     0.60396  -2.28714  -1.01356
H     1.48796   0.17778  -2.34622
H    -0.02588  -0.68860  -2.94567
H    -1.42788   1.15864  -2.06255
H     0.07137   1.96728  -1.34702
H    -3.45562  -1.18801   0.32151
H    -2.65908  -1.11934   1.90869
H    -4.07028  -0.05544   1.56036
H    -1.47052  -1.62369  -0.42428
25

C     2.89792   0.90083   1.37025
N     1.70681   0.27832   0.82814
C     1.78305  -0.76986  -0.00857
O     2.85036  -1.33567  -0.28421
C     0.50931  -1.17154  -0.76773
C     0.40411  -0.11463  -2.05735
C    -0.44542   0.99647  -1.58326
N    -1.00929   0.29271   0.04127
C    -2.25052   0.60834   0.59130
C    -3.13156  -0.49843   1.14729
O    -2.63191   1.78196   0.58014
N    -0.71758  -1.06973  -0.02020
H     2.60333   1.70220   2.05551
H     3.52660   1.34022   0.56839
H     3.50940   0.16986   1.90969
H     0.78997   0.73030   0.91791
H     0.60567  -2.28376  -1.01798
H     1.48665   0.17907  -2.34649
H    -0.02625  -0.68790  -2.94537
H    -1.42816   1.15904  -2.06357
H     0.07015   1.96653  -1.34544
H    -3.45473  -1.18741   0.32174
H    -2.65713  -1.11892   1.90831
H    -4.06870  -0.05497   1.56127
H    -1.46983  -1.62254  -0.42844
25

C     2.89792   0.90126   1.36924
N     1.70652   0.27945   0.82726
C     1.78207  -0.77082  -0.00680
O     2.84919  -1.33579  -0.28523
C     0.50762  -1.18651  -0.74500
C     0.40526  -0.09830  -2.07940
C    -0.43773   1.00466  -1.60410
N    -1.00799   0.28887   0.05741
C    -2.25202   0.60513   0.59499
C    -3.13594  -0.50020   1.14674
O    -2.63075   1.77936   0.58189
N    -0.71781  -1.06586  -0.02286
H     2.60341   1.70231   2.05527
H     3.52667   1.34032   0.56814
H     3.50930   0.16982   1.90932
H     0.78973   0.73037   0.91775
H     0.60396  -2.28714  -1.01356
H     1.48796   0.17778  -2.34622
H    -0.02588  -0.68860  -2.94567
H    -1.42788   1.15864  -2.06255
H     0.07137   1.96728  -1.34702
H    -3.45562  -1.18801   0.32151
H    -2.65908  -1.11934   1.90869
H    -4.07028  -0.05544   1.56036
H    -1.47052  -1.62369  -0.42428
25

C     2.89792   0.90169   1.36823
N     1.70623   0.28057   0.82638
C     1.78108  -0.77178  -0.00503
O     2.84801  -1.33591  -0.28624
C     0.50594  -1.20148  -0.72227
C     0.40641  -0.08197  -2.10145
C    -0.43003   1.01284  -1.62493
N    -1.00670   0.28502   0.07354
C    -2.25352   0.60193   0.59867
C    -3.14033  -0.50196   1.14619
O    -2.62959   1.77675   0.58365
N    -0.71803  -1.06198  -0.02551
H     2.60349   1.70242   2.05502
H     3.52674   1.34041   0.56789
H     3.50919   0.16978   1.90894
H     0.78948   0.73044   0.91758
H     0.60224  -2.29051  -1.00915
H     1.48927   0.17650  -2.34595
H    -0.02551  -0.68930  -2.94597
H    -1.42760   1.15824  -2.06153
H     0.07259   1.96803  -1.34861
H    -3.45651  -1.18860   0.32128
H    -2.66104  -1.11977   1.90908
H    -4.07185  -0.05591   1.55946
H    -1.47122  -1.62484  -0.42012
25

C     2.89792   0.90212   1.36723
N     1.70594   0.28170   0.82550
C     1.78009  -0.77274  -0.00326
O     2.84684  -1.33604  -0.28726
C     0.50425  -1.21645  -0.69954
C     0.40755  -0.06563  -2.12349
C    -0.42234   1.02102  -1.64577
N    -1.00540   0.28118   0.08968
C    -2.25502   0.59872   0.60236
C    -3.14472  -0.50373   1.14564
O    -2.62843   1.77415   0.58540
N    -0.71826  -1.05811  -0.02817
H     2.60358   1.70253   2.05478
H     3.52681   1.34051   0.56764
H     3.50909   0.16974   1.90857
H     0.78924   0.73051   0.91742
H     0.60052  -2.29388  -1.00473
H     1.49058   0.17521  -2.34568
H    -0.02514  -0.69000  -2.94628
H    -1.42731   1.15783  -2.06051
H     0.07380   1.96878  -1.35019
H    -3.45739  -1.18919   0.32105
H    -2.66299  -1.12019   1.90946
H    -4.07343  -0.05638   1.55855
H    -1.47192  -1.62599  -0.41597
25

C     2.89792   0.90255   1.36622
N     1.70565   0.28283   0.82462
C     1.77911  -0.77370  -0.00149
O     2.84567  -1.33616  -0.28828
C     0.50256  -1.23142  -0.67681
C     0.40870  -0.04930  -2.14554
C    -0.41464   1.02920  -1.66660
N    -1.00410   0.27734   0.10582
C    -2.25652   0.59552   0.60605
C    -3.14911  -0.50549   1.14509
O    -2.62727   1.77154   0.58715
N    -0.71849  -1.05424  -0.03082
H     2.60366   1.70264   2.05454
H     3.52687   1.34060   0.56738
H     3.50899   0.16970   1.90819
H     0.78900   0.73058   0.91726
H     0.59880  -2.29725  -1.00031
H     1.49189   0.17392  -2.34541
H    -0.02477  -0.69070  -2.94658
H    -1.42703   1.15743  -2.05949
H     0.07502   1.96952  -1.35178
H    -3.45828  -1.18979   0.32083
H    -2.66495  -1.12062   1.90985
H    -4.07501  -0.05685   1.55765
H    -1.47261  -1.62714  -0.41181
25

C     2.89792   0.90298   1.36522
N     1.70537   0.28396   0.82374
C     1.77812  -0.77466   0.00029
O     2.84449  -1.33628  -0.28930
C     0.50088  -1.24639  -0.65408
C     0.40985  -0.03296  -2.16759
C    -0.40694   1.03739  -1.68744
N    -1.00280   0.27350   0.12195
C    -2.25802   0.59232   0.60974
C    -3.15350  -0.50726   1.14454
O    -2.62611   1.76894   0.58890
N    -0.71872  -1.05037  -0.03348
H     2.60374   1.70275   2.05429
H     3.52694   1.34070   0.56713
H     3.50888   0.16966   1.90782
H     0.78876   0.73065   0.91710
H     0.59709  -2.30062  -0.99590
H     1.49320   0.17263  -2.34514
H    -0.02440  -0.69141  -2.94688
H    -1.42675   1.15702  -2.05847
H     0.07623   1.97027  -1.35336
H    -3.45917  -1.19038   0.32060
H    -2.66690  -1.12104   1.91023
H    -4.07658  -0.05732   1.55674
H    -1.47331  -1.62829  -0.40766
25

C     2.89792   0.90341   1.36421
N     1.70508   0.28509   0.82286
C     1.77713  -0.77562   0.00206
O     2.84332  -1.33640  -0.29031
C     0.49919  -1.26135  -0.63135
C     0.41100  -0.01663  -2.18963
C    -0.39925   1.04557  -1.70827
N    -1.00150   0.26966   0.13809
C    -2.25952   0.58911   0.61343
C    -3.15789  -0.50903   1.14399
O    -2.62495   1.76633   0.59065
N    -0.71894  -1.04650  -0.03613
H     2.60383   1.70286   2.05405
H     3.52701   1.34079   0.56688
H     3.50878   0.16962   1.90744
H     0.78852   0.73072   0.91694
H     0.59537  -2.30399  -0.99148
H     1.49451   0.17134  -2.34487
H    -0.02403  -0.69211  -2.94719
H    -1.42647   1.15662  -2.05745
H     0.07745   1.97102  -1.35495
H    -3.46006  -1.19097   0.32037
H    -2.66886  -1.12147   1.91062
H    -4.07816  -0.05779   1.55584
H    -1.47400  -1.62945  -0.40350
25

C     2.89792   0.90384   1.36320
N     1.70479   0.28621   0.82198
C     1.77614  -0.77658   0.00383
O     2.84215  -1.33653  -0.29133
C     0.49751  -1.27632  -0.60861
C     0.41215  -0.00029  -2.21168
C    -0.39155   1.05375  -1.72911
N    -1.00020   0.26581   0.15423
C    -2.26102   0.58591   0.61712
C    -3.16228  -0.51079   1.14344
O    -2.62379   1.76373   0.59240
N    -0.71917  -1.04263  -0.03879
H     2.60391   1.70297   2.05381
H     3.52708   1.34088   0.56663
H     3.50867   0.16958   1.90706
H     0.78828   0.73079   0.91677
H     0.59365  -2.30736  -0.98706
H     1.49583   0.17006  -2.34460
H    -0.02367  -0.69281  -2.94749
H    -1.42618   1.15622  -2.05644
H     0.07867   1.97177  -1.35653
H    -3.46095  -1.19157   0.32015
H    -2.67081  -1.12189   1.91100
H    -4.07973  -0.05826   1.55493
H    -1.47470  -1.63060  -0.39934
25

C     2.89792   0.90427   1.36220
N     1.70450   0.28734   0.82110
C     1.77516  -0.77753   0.00560
O     2.84098  -1.33665  -0.29235
C     0.49582  -1.29129  -0.58588
C     0.41330   0.01604  -2.23373
C    -0.38385   1.06194  -1.74995
N    -0.99891   0.26197   0.17036
C    -2.26252   0.58270   0.62080
C    -3.16667  -0.51256   1.14288
O    -2.62263   1.76112   0.59416
N    -0.71940  -1.03876  -0.04144
H     2.60399   1.70308   2.05357
H     3.52714   1.34098   0.56638
H     3.50857   0.16954   1.90669
H     0.78804   0.73086   0.91661
H     0.59193  -2.31073  -0.98264
H     1.49714   0.16877  -2.34433
H    -0.02330  -0.69351  -2.94780
H    -1.42590   1.15581  -2.05542
H     0.07988   1.97252  -1.35811
H    -3.46183  -1.19216   0.31992
H    -2.67277  -1.12232   1.91139
H    -4.08131  -0.05873   1.55403
H    -1.47540  -1.63175  -0.39519
25

C     2.89791   0.90470   1.36119
N     1.70421   0.28847   0.82022
C     1.77417  -0.77849   0.00737
O     2.83980  -1.33677  -0.29336
C     0.49414  -1.30626  -0.56315
C     0.41445   0.03238  -2.25577
C    -0.37616   1.07012  -1.77078
N    -0.99761   0.25813   0.18650
C    -2.26402   0.57950   0.62449
C    -3.17106  -0.51432   1.14233
O    -2.62147   1.75852   0.59591
N    -0.71962  -1.03489  -0.04410
H     2.60408   1.70319   2.05332
H     3.52721   1.34107   0.56613
H     3.50846   0.16950   1.90631
H     0.78780   0.73093   0.91645
H     0.59022  -2.31410  -0.97823
H     1.49845   0.16748  -2.34405
H    -0.02293  -0.69422  -2.94810
H    -1.42562   1.15541  -2.05440
H     0.08110   1.97327  -1.35970
H    -3.46272  -1.19275   0.31969
H    -2.67472  -1.12274   1.91177
H    -4.08289  -0.05920   1.55312
H    -1.47609  -1.63290  -0.39103
25

C     2.89791   0.90513   1.36018
N     1.70393   0.28960   0.81934
C     1.77318  -0.77945   0.00914
O     2.83863  -1.33689  -0.29438
C     0.49245  -1.32123  -0.54042
C     0.41560   0.04871  -2.27782
C    -0.36846   1.07830  -1.79162
N    -0.99631   0.25429   0.20264
C    -2.26552   0.57630   0.62818
C    -3.17544  -0.51609   1.14178
O    -2.62031   1.75591   0.59766
N    -0.71985  -1.03102  -0.04676
H     2.60416   1.70330   2.05308
H     3.52728   1.34117   0.56588
H     3.50836   0.16946   1.90594
H     0.78756   0.73100   0.91629
H     0.58850  -2.31747  -0.97381
H     1.49976   0.16619  -2.34378
H    -0.02256  -0.69492  -2.94840
H    -1.42534   1.15501  -2.05338
H     0.08231   1.97401  -1.36128
H    -3.46361  -1.19335   0.31946
H    -2.67668  -1.12316   1.91216
H    -4.08446  -0.05967   1.55222
H    -1.47679  -1.63405  -0.38688
25

C     2.89791   0.90556   1.35918
N     1.70364   0.29072   0.81845
C     1.77220  -0.78041   0.01091
O     2.83746  -1.33702  -0.29540
C     0.49076  -1.33620  -0.51769
C     0.41675   0.06505  -2.29987
C    -0.36076   1.08648  -1.81245
N    -0.99501   0.25044   0.21877
C    -2.26702   0.57309   0.63187
C    -3.17983  -0.51785   1.14123
O    -2.61915   1.75331   0.59941
N    -0.72008  -1.02715  -0.04941
H     2.60424   1.70341   2.05284
H     3.52735   1.34126   0.56562
H     3.50826   0.16942   1.90556
H     0.78732   0.73107   0.91613
H     0.58678  -2.32084  -0.96939
H     1.50107   0.16490  -2.34351
H    -0.02219  -0.69562  -2.94871
H    -1.42505   1.15460  -2.05236
H     0.08353   1.97476  -1.36287
H    -3.46450  -1.19394   0.31924
H    -2.67863  -1.12359   1.91254
H    -4.08604  -0.06014   1.55131
H    -1.47749  -1.63520  -0.38272
25

C     2.89791   0.90599   1.35817
N     1.70335   0.29185   0.81757
C     1.77121  -0.78137   0.01268
O     2.83629  -1.33714  -0.29642
C     0.48908  -1.35117  -0.49496
C     0.41790   0.08138  -2.32191
C    -0.35307   1.09467  -1.83329
N    -0.99371   0.24660   0.23491
C    -2.26852   0.56989   0.63556
C    -3.18422  -0.51962   1.14068
O    -2.61799   1.75070   0.60116
N    -0.72031  -1.02328  -0.05207
H     2.60433   1.70352   2.05259
H     3.52741   1.34136   0.56537
H     3.50815   0.16938   1.90518
H     0.78708   0.73114   0.91596
H     0.58507  -2.32421  -0.96498
H     1.50238   0.16361  -2.34324
H    -0.02182  -0.69632  -2.94901
H    -1.42477   1.15420  -2.05134
H     0.08475   1.97551  -1.36445
H    -3.46539  -1.19454   0.31901
H    -2.68059  -1.12401   1.91293
H    -4.08761  -0.06061   1.55041
H    -1.47818  -1.63635  -0.37856
25

C     2.89791   0.90642   1.35716
N     1.70306   0.29298   0.81669
C     1.77022  -0.78233   0.01445
O     2.83511  -1.33726  -0.29743
C     0.48739  -1.36614  -0.47223
C     0.41905   0.09771  -2.34396
C    -0.34537   1.10285  -1.85412
N    -0.99242   0.24276   0.25105
C    -2.27002   0.56668   0.63925
C    -3.18861  -0.52139   1.14013
O    -2.61683   1.74810   0.60291
N    -0.72053  -1.01941  -0.05472
H     2.60441   1.70363   2.05235
H     3.52748   1.34145   0.56512
H     3.50805   0.16934   1.90481
H     0.78684   0.73121   0.91580
H     0.58335  -2.32758  -0.96056
H     1.50369   0.16233  -2.34297
H    -0.02145  -0.69703  -2.94931
H    -1.42449   1.15379  -2.05032
H     0.08596   1.97626  -1.36604
H    -3.46627  -1.19513   0.31878
H    -2.68254  -1.12444   1.91331
H    -4.08919  -0.06109   1.54950
H    -1.47888  -1.63750  -0.37441
25

C     2.89791   0.90685   1.35616
N     1.70277   0.29411   0.81581
C     1.76924  -0.78329   0.01622
O     2.83394  -1.33738  -0.29845
C     0.48571  -1.38111  -0.44950
C     0.42020   0.11405  -2.36601
C    -0.33767   1.11103  -1.87496
N    -0.99112   0.23892   0.26718
C    -2.27152   0.56348   0.64293
C    -3.19300  -0.52315   1.13958
O    -2.61566   1.74549   0.60467
N    -0.72076  -1.01554  -0.05738
H     2.60449   1.70374   2.05211
H     3.52755   1.34155   0.56487
H     3.50794   0.16930   1.90443
H     0.78660   0.73128   0.91564
H     0.58163  -2.33096  -0.95614
H     1.50500   0.16104  -2.34270
H    -0.02108  -0.69773  -2.94962
H    -1.42421   1.15339  -2.04930
H     0.08718   1.97701  -1.36762
H    -3.46716  -1.19572   0.31855
H    -2.68450  -1.12486   1.91370
H    -4.09076  -0.06156   1.54860
H    -1.47957  -1.63865  -0.37025
25

C     2.89791   0.90728   1.35515
N     1.70249   0.29523   0.81493
C     1.76825  -0.78425   0.01799
O     2.83277  -1.33751  -0.29947
C     0.48402  -1.39608  -0.42677
C     0.42135   0.13038  -2.38806
C    -0.32998   1.11921  -1.89579
N    -0.98982   0.23508   0.28332
C    -2.27303   0.56028   0.64662
C    -3.19739  -0.52492   1.13903
O    -2.61450   1.74289   0.60642
N    -0.72099  -1.01166  -0.06003
H     2.60458   1.70385   2.05187
H     3.52762   1.34164   0.56462
H     3.50784   0.16926   1.90406
H     0.78636   0.73135   0.91548
H     0.57991  -2.33433  -0.95172
H     1.50631   0.15975  -2.34243
H    -0.02072  -0.69843  -2.94992
H    -1.42393   1.15299  -2.04828
H     0.08840   1.97776  -1.36921
H    -3.46805  -1.19632   0.31833
H    -2.68645  -1.12529   1.91408
H    -4.09234  -0.06203   1.54769
H    -1.48027  -1.63980  -0.36610
25

C     2.89791   0.90771   1.35414
N     1.70220   0.29636   0.81405
C     1.76726  -0.78521   0.01977
O     2.83159  -1.33763  -0.30049
C     0.48234  -1.41105  -0.40404
C     0.42250   0.14672  -2.41010
C    -0.32228   1.12740  -1.91663
N    -0.98852   0.23123   0.29946
C    -2.27453   0.55707   0.65031
C    -3.20178  -0.52668   1.13847
O    -2.61334   1.74028   0.60817
N    -0.72122  -1.00779  -0.06269
H     2.60466   1.70397   2.05162
H     3.52768   1.34173   0.56437
H     3.50773   0.16922   1.90368
H     0.78612   0.73142   0.91531
H     0.57820  -2.33770  -0.94731
H     1.50763   0.15846  -2.34216
H    -0.02035  -0.69913  -2.95023
H    -1.42364   1.15258  -2.04726
H     0.08961   1.97851  -1.37079
H    -3.46894  -1.19691   0.31810
H    -2.68841  -1.12571   1.91447
H    -4.09392  -0.06250   1.54679
H    -1.48097  -1.64095  -0.36194
25

C     2.89791   0.90814   1.35314
N     1.70191   0.29749   0.81317
C     1.76628  -0.78617   0.02154
O     2.83042  -1.33775  -0.30150
C     0.48065  -1.42602  -0.38131
C     0.42365   0.16305  -2.43215
C    -0.31458   1.13558  -1.93746
N    -0.98722   0.22739   0.31559
C    -2.27603   0.55387   0.65400
C    -3.20617  -0.52845   1.13792
O    -2.61218   1.73768   0.60992
N    -0.72144  -1.00392  -0.06534
H     2.60474   1.70408   2.05138
H     3.52775   1.34183   0.56412
H     3.50763   0.16918   1.90330
H     0.78588   0.73149   0.91515
H     0.57648  -2.34107  -0.94289
H     1.50894   0.15717  -2.34189
H    -0.01998  -0.69984  -2.95053
H    -1.42336   1.15218  -2.04624
H     0.09083   1.97925  -1.37238
H    -3.46983  -1.19750   0.31787
H    -2.69036  -1.12614   1.91485
H    -4.09549  -0.06297   1.54588
H    -1.48166  -1.64210  -0.35778
25

C     2.89791   0.90857   1.35213
N     1.70162   0.29862   0.81229
C     1.76529  -0.78713   0.02331
O     2.82925  -1.33787  -0.30252
C     0.47896  -1.44099  -0.35858
C     0.42480   0.17939  -2.45420
C    -0.30689   1.14376  -1.95830
N    -0.98592   0.22355   0.33173
C    -2.27753   0.55066   0.65769
C    -3.21055  -0.53021   1.13737
O    -2.61102   1.73507   0.61167
N    -0.72167  -1.00005  -0.06800
H     2.60483   1.70419   2.05114
H     3.52782   1.34192   0.56386
H     3.50752   0.16914   1.90293
H     0.78563   0.73156   0.91499
H     0.57476  -2.34444  -0.93847
H     1.51025   0.15588  -2.34162
H    -0.01961  -0.70054  -2.95083
H    -1.42308   1.15178  -2.04522
H     0.09204   1.98000  -1.37396
H    -3.47071  -1.19810   0.31765
H    -2.69232  -1.12656   1.91524
H    -4.09707  -0.06344   1.54498
H    -1.48236  -1.64325  -0.35363
25

C     2.89791   0.90900   1.35112
N     1.70134   0.29974   0.81141
C     1.76430  -0.78809   0.02508
O     2.82808  -1.33799  -0.30354
C     0.47728  -1.45596  -0.33585
C     0.42595   0.19572  -2.47624
C    -0.29919   1.15195  -1.97913
N    -0.98463   0.21971   0.34787
C    -2.27903   0.54746   0.66137
C    -3.21494  -0.53198   1.13682
O    -2.60986   1.73247   0.61342
N    -0.72190  -0.99618  -0.07065
H     2.60491   1.70430   2.05089
H     3.52789   1.34202   0.56361
H     3.50742   0.16911   1.90255
H     0.78539   0.73163   0.91483
H     0.57304  -2.34781  -0.93406
H     1.51156   0.15460  -2.34135
H    -0.01924  -0.70124  -2.95114
H    -1.42280   1.15137  -2.04420
H     0.09326   1.98075  -1.37554
H    -3.47160  -1.19869   0.31742
H    -2.69427  -1.12699   1.91562
H    -4.09864  -0.06391   1.54408
H    -1.48305  -1.64441  -0.34947
