15

C 4.472592529 -0.591793191 0.756098112
C 1.933090860 0.366870126 1.307625131
C -2.934045133 2.039932631 0.384615335
C -2.837506414 -0.847286922 0.576954173
O -3.515152716 -1.011264164 -2.122826393
C -1.580797931 0.934554172 -1.925200215
C 0.002111164 -0.910630825 -0.175060298
H 4.628044593 -2.049782148 2.247517061
H 4.755930524 -1.563798484 -1.058046546
H 5.983194428 0.751877031 1.149682143
H -4.799534820 2.803009955 -0.016401783
H -1.818024927 3.118326821 1.725838814
H -3.792300573 -2.120345731 1.877893453
H -0.910187382 1.822833939 -3.654095963
H 0.504439750 -2.635002361 -1.214207881

