15

C 3.883016006 0.047952046 0.463487684
C 1.287785898 -0.193173568 1.513142164
C -2.169360086 1.837874024 1.008581604
C -3.109923776 -0.793624199 0.351132846
O -3.339558948 -0.288319370 -2.373469896
C -0.790881885 0.090682099 -2.017723889
C -0.362800676 -1.842425316 -0.043950230
H 4.929229994 -1.398779945 1.527986378
H 4.150490960 -0.375181387 -1.557265304
H 4.769293609 1.847478462 0.932798427
H -3.138635028 3.300555341 -0.070283847
H -1.839382082 2.376723117 2.951791211
H -4.721549149 -1.752971936 1.194387715
H 0.397035975 0.978951662 -3.430473502
H 0.104634740 -3.788594234 -0.538818649

