10

O -0.991654665 -2.998314227 -1.348201822
C -0.154697818 -0.805396663 -0.301095015
C 2.149996649 -0.715497554 0.757729871
O 3.286242839 1.264052998 1.876861190
C -1.904629809 1.308206298 -0.433059957
O -3.962125894 1.092400652 -1.414038898
H -2.666425653 -2.640066543 -1.987402704
H 2.228392504 2.738147581 1.862992585
H 3.331007616 -2.387356832 0.771703187
H -1.314709261 3.138680457 0.385061234

