16

C -1.895200170 -1.508495970 -1.355310121
C -0.385330709 0.859326291 -0.712590645
C -1.983599215 2.687200432 0.842714257
C 2.153491017 0.413189656 0.657906279
C 3.604723447 -1.771660477 0.203013939
O 2.622769238 -3.710814864 1.249517187
H -3.584948767 -0.977489184 -2.414343274
H -2.511475008 -2.508908571 0.343718713
H -0.823081325 -2.839768284 -2.507667248
H 0.056040263 1.797661956 -2.509770664
H -0.929501138 4.398356339 1.309469863
H -3.679627353 3.246371205 -0.193815225
H -2.567942047 1.804605566 2.616098882
H 3.210361359 2.173534473 0.816060369
H 1.398407291 -1.912613561 2.171235073
H 5.419029450 -1.989163400 -0.760399450

