13

C -3.319158939 -1.925491686 -0.567037911
C -0.883406750 -0.457846946 -0.457539544
C -1.142444039 2.362836370 -0.180570966
H -2.135475766 3.165077871 -1.802235603
H -2.219506974 2.821444894 1.519531139
H 0.708704782 3.253853614 -0.034939562
O 1.029428458 -1.570146206 1.077053978
C 1.407872721 -1.516569314 -1.578465215
H 1.336210187 -3.344943761 -2.512369189
H 2.898948950 -0.259923684 -2.224819863
H -2.948638373 -3.945483265 -0.721887738
H -4.427226478 -1.598782719 1.143624607
H -4.455306089 -1.335291988 -2.185913842

