15

C -3.133876641 0.083156283 -0.851154473
N -1.082263499 -0.464437706 0.882013700
C -0.120078697 -3.011759477 0.580314522
C 2.381069241 1.629414253 -1.610460584
O 4.494734166 2.818999589 -1.233334139
C 0.904031542 1.393896382 0.810473564
H -4.655115865 -1.275956383 -0.545244512
H -3.881469492 1.968826073 -0.469262366
H -2.562429243 0.001449004 -2.846532256
H -1.650357767 -4.363391795 0.871148909
H 1.327882504 -3.382388382 2.004847805
H 0.707531546 -3.351322966 -1.298107696
H 4.801426247 3.268468321 0.540935691
H 2.194862243 1.083451816 2.425495531
H 0.067603006 3.282405127 1.079557506

