15

C -3.381167581 0.052466999 0.705059822
N -0.654332883 0.028364921 0.696108454
C 0.533835441 -2.234144150 -0.306392956
C 3.229712910 0.551990683 -0.935424088
O 4.505544420 0.725200372 1.252607229
C 0.652797008 1.869612484 -0.843818802
H -4.078843090 -1.495841948 1.877332318
H -4.063886588 1.826101144 1.509367266
H -4.189249205 -0.153789351 -1.204741808
H -0.389214928 -3.010499351 -1.998069698
H 0.981535598 -3.690254096 1.079655167
H 2.804074154 -1.590228949 -1.609995144
H 3.387151606 1.223658761 2.615878011
H 0.747213678 3.753142405 0.001682102
H -0.132816207 2.045583895 -2.764369326

