12

C -3.301948977 -1.426035011 -1.679276189
C -3.342925968 1.381737885 -2.020725095
C -3.319843360 3.145844805 -0.235664173
C -3.247266595 2.770680274 2.567145621
H -4.889553606 3.649953211 3.459979497
H -1.573253180 3.669925802 3.377482955
H -3.221136804 0.785108847 3.109717361
H -3.356701656 5.105146564 -0.852719450
H -3.396629660 2.022630487 -3.971929491
H -1.646031390 -2.246618194 -2.602507008
H -4.962778736 -2.288176352 -2.554294482
H -3.265628346 -1.992437596 0.299458493

