17

C 3.414427403 0.593427596 -0.712630216
C 1.148106376 -1.064622188 -0.067425560
C 0.263324303 -0.685005557 2.680061973
C -1.739371804 1.242109990 2.844386529
O -2.771914549 -2.537912938 -1.690423532
C -2.449755929 1.668099555 0.163417638
C -1.231232726 -0.344156619 -1.538849771
H 5.040307642 0.086162573 0.450571841
H 3.023668266 2.594843866 -0.377701337
H 3.960601452 0.377277774 -2.690098932
H 1.607359260 -3.037058337 -0.460743707
H 1.724592880 -0.567783729 4.130492215
H -0.948530510 -2.298677692 3.251027982
H -4.385138668 -2.076560852 -2.374406010
H -4.459000806 2.023582815 -0.155132795
H -1.530365222 3.519661564 -0.135554855
H -0.796034129 0.353077601 -3.441384592

