16

C 1.902654327 -0.225715332 2.730783035
C 1.957319077 -0.766390184 -0.167952811
C -0.380054386 0.200011901 -1.684112962
C -2.686619115 -1.495903043 -1.375483553
C -0.794425953 2.967281636 -0.846479706
C -0.698299459 2.814692657 1.619646372
N -0.283006915 1.441589101 3.431150629
H 1.627504723 -1.952361758 3.816765874
H 2.163277965 -2.802798381 -0.443716443
H 3.676669705 0.620850848 3.350134631
H 3.628511565 0.119766458 -0.987045926
H 0.145378332 0.247934279 -3.681097522
H -4.248507331 -0.825873131 -2.541038242
H -2.249822357 -3.435774619 -1.930634632
H -3.323957672 -1.525856657 0.587552664
H -0.434560815 4.595986675 -2.011056482

