16

C 2.075506631 -0.863387955 2.238399378
C 2.021006797 -0.270044566 -0.383292129
C -0.432347001 0.177385454 -1.791544327
C -2.575945944 -1.634323875 -1.186232621
C -0.693504090 2.865225257 -0.879605415
C -0.792679449 3.032118630 1.695346382
N -0.637431815 2.517079917 3.848462723
H 0.574059490 -1.960832909 3.077370560
H 2.723406016 -2.444465641 0.115656681
H 3.761503744 -0.516744777 3.339778383
H 3.675590671 0.673383571 -1.138654703
H -0.064700859 0.176566674 -3.817987922
H -4.232639395 -1.120609028 -2.296519814
H -2.072939513 -3.586834374 -1.640820659
H -3.117918451 -1.532937990 0.800834335
H -0.121081990 4.437962126 -2.042822381

