12

C 1.081986276 -1.144472244 -1.346398305
C 2.183645131 -0.248789947 1.076256192
C 0.372123187 1.540584899 -1.689624575
C -1.701560406 1.141966108 0.312301922
C -1.652547241 -1.553534134 -0.438825190
C -0.069426932 0.278869303 2.427355191
H 2.125517042 -2.284862112 -2.688775538
H 4.100472460 -0.487423806 1.739998248
H 0.482881471 2.760405191 -3.339714700
H -3.384757380 2.272852657 0.593350873
H -3.153356089 -2.804041235 -1.077007075
H -0.385808980 0.528462326 4.429712905

