16

C 2.829074550 0.986622816 -0.604842241
C 1.030766629 -0.757939442 0.273517183
O 1.885921482 -3.100151303 1.097960453
C -1.432404371 -0.841820322 -1.016421586
C -2.970969739 1.230635837 0.142801482
C -1.359938136 0.398648327 2.339731690
H 2.162203505 2.824385762 -1.212308102
H 1.727838579 -0.025261179 -3.716011006
H 4.699577530 0.992043231 0.239601418
H 3.593768100 -3.289464482 0.516991802
H 0.195881489 -0.414522424 -3.973440781
H -2.315497200 -2.701722260 -1.001567299
H -4.982427957 0.855538373 0.270357126
H -2.602135564 3.135796016 -0.523917176
H -2.159461758 -1.093648778 3.488509977
H -0.360712510 1.805416012 3.431507466

