12

C -1.335288284 -1.455409217 2.754894674
H -2.270972984 -2.576760094 4.179863332
C -2.536021379 0.307542193 1.426390941
H -4.531246642 0.674226219 1.646683402
O -1.387854059 1.820780355 -0.317689059
C 1.278416183 1.725695762 -0.120007587
H 1.888053188 2.854767550 1.505904305
H 2.044338433 2.552285571 -1.843939270
C 2.160958742 -0.983388096 0.202968642
H 4.213088213 -1.081984103 0.350247377
H 1.539737961 -2.114766333 -1.416962909
O 1.160649962 -2.028809741 2.453172195

