13

C 3.607680869 0.912445472 0.263715551
C 0.878042895 0.508437636 -0.249000783
C -0.522243030 -1.774046351 0.281957134
N -2.629132248 -1.536160823 -1.457976069
C -2.873070020 1.020940772 -0.987591849
O -4.303779817 1.437219507 0.910857970
N -0.617186423 2.287526097 -1.123689055
H 4.031591584 2.923040917 0.330867876
H 4.734479298 0.038128456 -1.228856773
H 4.142020659 0.031737497 2.049579267
H 0.399679740 -3.589492708 0.511636318
H -4.214104980 -2.446741778 -0.905022118
H -2.713484973 -0.087948270 2.082849653

