12

N 4.741463045 -1.928522429 2.539689375
C 3.182467338 -1.383092232 1.112581264
C 1.379222073 -0.656877494 -0.721302490
C -1.174149240 -1.996139607 -0.846681416
N -3.082319866 -0.257580423 0.194916198
C -2.147243885 1.899920819 0.434481314
N 0.468256918 2.162300750 -0.232310741
H 1.314792636 1.656990157 -2.119950986
H -1.753805778 -2.432908813 -2.779893880
H -1.183405950 -3.766330652 0.211004287
H -3.153009229 3.556656128 1.094700788
H 1.606364829 3.190239914 0.911557716

