11

C -0.760599572 -4.583920112 0.173812795
C -0.918973871 -1.724210569 0.352452801
O -2.491757171 -0.883985838 -1.646378287
H -2.413410354 0.925384861 -1.725403742
C 1.593160632 -0.538358369 0.235738931
C 3.624967705 0.454182956 0.146430021
H 5.435083467 1.327865572 0.064080500
H -1.763702746 -1.207407853 2.176603293
H -2.658577790 -5.379342347 0.267654761
H 0.365953628 -5.342501286 1.722216776
H 0.102036499 -5.130969369 -1.614753323

