13

O 3.824391467 -1.640876312 -1.146265537
N 3.360290472 2.114175680 -0.858924006
C 1.286704994 1.726811116 -0.112977125
C -0.022150274 -1.758298980 0.382553020
C -2.410833240 -0.235481418 -0.111893178
C -1.354775121 2.370422864 0.562554460
H 5.188833577 -2.806986354 -1.571374415
H 0.155353175 -3.543237693 -0.589955148
H 0.538936455 -1.882115801 2.349947417
H -2.889643447 -0.303402200 -2.114914450
H -4.051835011 -0.891487880 0.962693781
H -2.098127314 3.999568758 -0.452151954
H -1.455207640 2.742492742 2.589012984

