15

C -2.285742196 -1.058678867 -0.819419697
C -0.734783192 1.017103380 -0.034855715
O -1.649001718 3.203075577 -0.537346836
C 1.207770264 0.549329022 2.082545652
C 3.087478781 -0.939137740 0.438263733
C 1.711744329 -0.303620577 -1.976301262
O 2.171339442 -0.135616328 -4.133542063
H -4.849667289 0.750191565 0.194226788
H -3.070533191 -0.963973693 -2.705926012
H -2.104307455 -2.937802985 -0.002383077
H -4.154585599 2.287008804 -0.028931745
H 1.960576247 2.357439406 2.702836990
H 0.456364947 -0.478524670 3.702265025
H 5.053934287 -0.327123403 0.444528119
H 3.020636692 -2.982727218 0.727275518

