10

O 2.954134717 -2.042667386 -2.040296120
C 1.451286911 -0.825918239 -1.007405363
C 1.090624366 1.711346429 0.333623910
O -1.488095072 1.667901531 0.852849765
C -2.043997753 -0.904778305 0.523523055
O -0.464381619 -2.429480056 1.533424651
H 1.572013463 3.322843905 -0.856572015
H 2.282281843 1.626491697 2.017338026
H -1.187245155 -0.883289266 -1.905023854
H -4.079550698 -1.250519460 0.510008319

