11

O -1.189122598 2.563926568 -1.728321366
C -1.613016930 0.548257642 -0.123524405
C -0.660712750 -1.933943543 -0.986067123
C 0.606589122 -0.658054226 1.242161844
C 3.066133134 0.443783094 0.934897119
N 5.017176600 1.369665842 0.724295797
H -0.741116193 4.030904706 -0.758400365
H -3.373240047 0.601805961 0.932420728
H -1.753109414 -3.616078207 -0.599716415
H 0.378830392 -1.927726741 -2.745226986
H 0.261588684 -1.422541097 3.107481173

