14

C -2.460601918 1.264237643 1.732914081
C 0.952418017 -3.444125999 -1.577071731
N -0.047226108 -2.543825815 0.472903623
C 0.131743239 0.184674204 1.150425202
C 1.443864029 1.259826474 -1.163149995
C 2.159695970 -1.070259184 -2.733321750
O 3.473464620 -1.037409943 -4.572389136
H -2.305012640 3.255231961 2.243113149
H -3.348508294 0.280615391 3.316101929
H -3.699863731 1.107641935 0.090445089
H -1.001054541 -3.691079509 1.667389150
H 1.333350087 0.328748775 2.825335368
H 3.124939313 2.366759951 -0.737520044
H 0.180317629 2.440602417 -2.290245451

