9

C -3.023169530 -1.140897336 -0.572984709
C -1.283809839 -0.272135736 1.009473176
O 0.607139449 -1.754081753 1.915832540
H 1.675561006 -0.799259249 3.030145643
C -1.302194153 2.401488960 1.892940171
O -2.815920393 3.969768211 1.282967040
H 0.257316221 2.882244659 3.228302627
H -4.477554742 0.135998619 -1.222137002
H -3.011130312 -3.080540614 -1.214941851

