11

O 3.510365680 0.326428437 -0.612996617
C 2.638158978 0.678511154 1.459618714
C -0.085196110 0.518355769 2.065331192
H -0.584745589 0.882809011 4.014771623
C -1.938670012 1.321258901 0.040030087
H -3.626240379 2.286994744 0.668838118
H -1.106683277 2.016423228 -1.693638504
C -1.642322349 -1.397182446 0.620084375
H -3.122332908 -2.352777962 1.655997050
H -0.606183757 -2.544746679 -0.717801262
H 3.896686304 1.155510569 3.064644124

