14

C -3.700772765 0.803679280 0.831423710
C -1.298563347 -0.445543468 -0.020518231
N -0.065980714 -2.144633020 1.770247000
C 1.188718159 0.220615774 1.062656400
C 3.520402072 0.182395213 -0.511261189
C 3.455040452 0.684702426 -2.936111227
O 3.374866988 1.112483621 -5.077859334
H -4.067631061 2.515939732 -0.260421249
H -3.578545223 1.304636624 2.826554808
H -5.305321152 -0.470783709 0.592457788
H 0.756403340 -3.609400482 0.851063955
H 1.216964141 1.588176007 2.592154881
H 5.354338512 -0.196120993 0.312200444
H -1.279726254 -1.030932075 -1.991512651

