15

C -3.439485644 -2.016583553 -0.737896591
C 1.150347043 1.483908025 2.076961833
C -1.992844473 0.401421122 -1.286547240
N -1.064188155 1.587964944 1.048989958
C 3.011975605 -0.079483771 0.694079133
O 2.918273573 -2.382271315 0.706518293
N 4.894351224 1.247858744 -0.468299456
H -5.031570474 -1.663546808 0.527513986
H -4.184634909 -2.810532274 -2.488668924
H -2.187939345 -3.396675618 0.139355585
H -0.368065056 0.021698402 -2.491878113
H -3.187011449 1.782495808 -2.250877372
H -2.412125945 2.528566957 2.026504898
H 5.203954730 3.041175105 0.073747469
H 6.392450129 0.245209426 -1.073303268

