15

C -2.527316147 -1.972287975 -0.044017353
C 0.003952041 0.304613118 1.216695233
C -1.819423475 0.988652590 -1.529426973
N -0.547353465 2.703994731 0.131907098
C 2.437857609 -0.795843720 0.285011896
O 2.769838723 -3.020821300 -0.222442043
N 4.359814883 0.906279825 0.344242640
H -4.078703458 -1.734231333 1.274981473
H -3.232414822 -2.691147692 -1.856368906
H -1.200736439 -3.406505860 0.587773157
H -0.776660052 0.595857387 -3.248361276
H -3.792890092 1.450425612 -1.822392651
H -1.812524217 3.632224688 1.233355777
H 3.989483478 2.761637330 0.458575662
H 6.112792394 0.294044862 -0.037626242

