13

O 4.377865963 1.033935171 -1.060737081
C 2.808819162 -0.425772492 0.544435274
C 0.583537998 1.201869500 1.348395897
C -1.081726798 1.935619087 -0.820040642
C -3.536183100 1.467001590 -0.950259251
H -4.652303518 2.037495904 -2.568933586
H -4.525832293 0.501002546 0.565261757
H -0.149384324 2.904144658 -2.371360244
H -0.513048549 0.181810399 2.771492838
H 1.341612517 2.902790196 2.250744166
H 3.854703506 -1.044863948 2.224729175
H 2.114291823 -2.114808966 -0.438711901
H 5.698301434 -0.018281759 -1.711217171

