16

C 2.948935154 -1.318827636 1.649702769
C 0.818979297 -0.276987665 0.113848081
C 1.084096420 1.571600671 -2.001590314
C -0.516132241 2.236389938 0.230079050
C -3.093594577 0.802324479 0.080641133
N -3.796278786 -0.376922543 -2.140960318
C -1.745263535 -1.708947478 -0.047242586
H 2.310235484 -1.895061804 3.527308228
H 4.420994332 0.103956612 1.896888867
H 3.797492368 -2.963390028 0.731508844
H 2.901136440 2.509982370 -2.073916161
H 0.191660578 1.235540980 -3.813002352
H -0.136972433 3.821231373 1.461831621
H -4.499719415 1.115274879 1.545432613
H -2.234776471 -2.185688511 -2.268141003
H -2.349626107 -3.253144324 1.145751872

