15

C 0.730898784 -0.973636580 -2.742463243
C 1.342620932 1.112380253 2.328492846
C 0.386054720 2.772151105 0.217017943
N -0.842098678 0.414225661 -0.912525899
C -0.871286897 -0.595916819 1.797760165
C -0.619691576 -3.348522524 2.000805587
N -0.440614912 -5.507808499 2.095779801
H 0.821944145 0.120825762 -4.483051691
H 2.594200207 -1.176057145 -1.898789421
H -0.103143822 -2.819894677 -3.104859820
H 1.601490772 1.860974452 4.219441699
H 1.711641301 3.683732405 -1.084565394
H -1.216703057 4.087707474 0.555050603
H -2.604230495 0.704902011 -1.624558432
H -2.794403292 -0.094903237 2.494236888

