15

O 4.902633043 -1.658067811 0.542080335
C 2.849288365 -1.190722686 -0.331145855
N 1.916132647 -2.727913731 -2.386388593
C 0.648516930 -2.111759193 -4.421910830
C -2.598442510 1.700432693 2.677748495
C -1.382242933 1.012984004 0.169750961
N 1.337261895 0.704070909 0.464600166
H 2.669995988 -4.486530979 -2.283412863
H 0.174906757 -0.086433843 -4.247815427
H -2.290551832 0.220883851 4.080416230
H -1.831554175 3.468124273 3.419785154
H -4.628570334 1.956547483 2.434557183
H -1.786095679 2.471886020 -1.237401832
H -2.179060296 -0.750035020 -0.536471005
H 2.169668716 1.745785988 1.823621558

