15

O 5.268303193 -0.838089662 0.053668600
C 3.012075099 -0.614632855 -0.275279579
N 1.404467019 -2.683614564 -0.480497770
C -1.021189403 -2.630408777 -1.368720185
C -2.347553569 0.173947495 1.192204515
C -0.814962211 2.278567775 0.028662251
N 1.831444665 1.676456302 -0.446983459
H 2.087487589 -4.277061036 0.305059131
H -1.263508436 -1.245797469 -2.872517181
H -2.679644344 -2.048965030 0.251921525
H -1.644827067 -0.402383673 3.041900646
H -4.334025677 0.716471179 1.292440426
H -0.855543059 3.898871923 1.318124318
H -1.725632380 2.896020725 -1.722952862
H 3.063644383 3.116317513 -0.315968331

