11

O 0.032839528 2.992355278 -3.248479044
C -0.302651506 1.506744345 -1.605258565
O -2.572633254 0.463089708 -0.991502826
C -2.107202912 -0.613659230 1.439403047
C 0.277820637 0.934631065 1.936707229
C 2.109711108 -0.314655236 -0.690361248
O 2.451841374 -0.425244956 2.006457380
H -1.904304568 -2.669429901 1.335866427
H -3.629531092 -0.083370484 2.718892349
H 3.702113677 0.641775672 -1.547507155
H 1.669490941 -2.184850323 -1.421599560

