15

C -3.161641045 -1.092964300 -0.236571318
C -0.654749152 -0.156103170 -1.195842464
N -0.650937895 3.123668926 -0.022603562
C 1.203761929 3.823139372 1.276222608
C 1.582095511 -1.192292765 -0.228426995
N 2.277671459 -3.438964287 -0.585244930
O 4.589133016 -3.962928480 0.712098296
H -4.744963064 0.126607493 -0.754717686
H -3.122511620 -1.327322352 1.808704778
H -3.470428171 -2.955485474 -1.073855975
H -0.652505461 0.378546120 -3.185771714
H -2.067854033 4.357068242 -0.402099496
H 2.622153980 2.309828683 1.560443350
H 1.369559601 5.718191425 2.044122683
H 4.884189392 -5.694465687 0.259115826

