11

C 0.195192816 -1.490525544 -3.633007640
C -1.951081885 -0.445271688 -2.890984964
C -2.980306403 -0.597364576 -0.254516119
C -3.334922127 1.983337355 0.909747605
O -2.716143270 2.531064797 3.018191046
H -4.253659480 3.405344491 -0.333389092
H -4.860791559 -1.474101027 -0.301203938
H -1.782922583 -1.729669005 0.982010184
H -3.072979611 0.616453455 -4.246927558
H 0.851331276 -1.320248880 -5.563891508
H 1.369894404 -2.564133681 -2.340991703

