11

O -3.813754785 2.103787251 0.378859720
C -1.386011821 2.352841627 0.354619107
C 0.102546158 0.077867733 -0.360750229
C -0.355671401 -2.224555661 1.160756033
O -1.262427720 -2.031657407 -1.309447338
C 2.693835336 0.384574743 -1.469513490
O 3.912184250 2.282904224 -1.381008053
H -2.904295023 4.040886939 0.972012965
H 1.196622543 -3.537706654 1.458552190
H -1.770592045 -2.115884484 2.644636827
H 3.394544102 -1.363499892 -2.392840440

