17

C 3.809267252 2.310006563 -0.702968386
O 1.240513247 1.781152987 -0.303380657
C 0.632121042 -0.760688597 -0.829123611
C 1.437937149 -2.695895270 1.105038233
O -1.872623782 -2.555291729 2.108022713
C -2.166706023 -1.255392062 -0.315617616
C -3.885962089 0.982561719 -0.003555142
H 5.032854581 1.168565628 0.522356980
H 4.348538320 1.960197243 -2.675905124
H 4.109051666 4.297750476 -0.264945140
H 1.247830625 -1.224014067 -2.755943415
H 2.438486699 -1.882263766 2.716021212
H -0.687713383 -4.146959005 1.594885518
H -2.943558902 -2.587342315 -1.691258829
H -4.056913423 1.995362193 -1.790849096
H -5.757648907 0.340131314 0.575069757
H -3.145383372 2.280078233 1.409509621

