14

O 2.386502789 4.629403420 -0.434749863
C 0.958130470 2.918176384 -0.172385277
C 2.604716797 -0.127690155 0.219488004
C 0.940946227 -2.419911843 0.243084674
C -1.530006911 -2.167422626 -0.082716790
C -2.843713408 0.337370859 -0.332532952
N -1.446558892 2.610048773 0.390413581
H 4.020095832 -0.031786649 1.714365058
H 3.583159046 0.097960398 -1.578950421
H 1.794548934 -4.266585113 0.507073159
H -2.738871100 -3.822305682 -0.122833880
H -4.537441448 0.308715789 0.845793150
H -3.525110023 0.582457244 -2.273836713
H 0.611225169 1.150543896 1.549019805

