17

O 3.154581274 -0.626184562 2.048447434
C 2.461617967 -1.127231611 -0.466165313
C 0.010228653 -2.577725556 -0.866472253
C -2.195753910 -1.393196674 0.563918823
C -2.415312231 1.437639423 0.024552815
C 0.115006615 2.763792752 0.309935645
C 2.286514243 1.652661570 -0.710222043
H 1.374237656 1.467395258 2.083546792
H 4.012335256 -1.975926832 -1.540204308
H 0.295823491 -4.531319623 -0.264041435
H -0.391412434 -2.623501828 -2.899714025
H -1.898557117 -1.675393161 2.587943456
H -3.958406384 -2.348159320 0.074774214
H -3.140386634 1.733632573 -1.893415059
H -3.783815457 2.296535272 1.305886338
H 0.132301257 4.784935307 0.634418061
H 4.016033110 2.698333886 -1.031503358

