16

C -3.546328888 1.338171798 3.188841045
C -1.281625108 0.430680036 2.620938036
C -0.269242660 0.144657458 0.043129522
H -1.539107511 0.740214132 -1.453037913
C 1.440167460 -2.055361526 -0.573054515
H 1.231574785 -2.923924213 -2.414551295
H 1.875898337 -3.366539702 0.935879607
C 2.504083760 0.555201328 -0.454383588
C 3.341597887 1.891272601 -2.822485737
H 2.133753054 1.385558968 -4.418541222
H 3.257014559 3.940669396 -2.592793608
H 5.280517211 1.384414776 -3.317857900
H 3.623312891 0.979328813 1.211444742
H -0.028924413 -0.157644109 4.143466526
H -4.172631936 1.506187046 5.129314706
H -4.855268343 1.941760603 1.731069991

