15

C -3.406469634 1.158250350 1.348566010
N -0.802397385 0.291961704 1.514266419
C 0.443219842 -0.083415969 -0.862775211
C 3.259871012 -0.537187797 -0.418663551
O 4.341149926 1.546825228 0.798730182
C -1.466718283 -3.860984728 -3.379977979
N -0.593172898 -2.152403272 -2.302618848
H -4.637386587 -0.134496079 0.295408054
H -4.164571706 1.389107760 3.248549908
H -3.451408890 2.999798947 0.421350325
H -0.687616610 -1.307210998 2.559469743
H 0.208996037 1.625614732 -1.997616579
H 4.219298817 -0.788681847 -2.224113502
H 3.484531953 -2.289641381 0.676148089
H 3.216820632 2.001994338 2.156880127

