15

C -3.584235093 1.205393726 1.248714753
N -0.999605291 0.310922233 1.417182854
C 0.448156393 0.183418764 -0.610475514
C 3.174076936 -0.593271656 -0.333114175
O 4.582469917 1.574189747 0.332383569
C -1.568943433 -2.374521113 -3.140849428
N -0.185312837 -3.855560232 -2.250804486
H -4.713918719 -0.138247412 0.154872769
H -4.360580827 1.424514424 3.139494173
H -3.620137282 3.027969378 0.294479537
H -0.658531798 -1.005016579 2.755780030
H 0.058953937 1.555543291 -2.075062186
H 3.885183012 -1.265698269 -2.134654246
H 3.364017239 -2.122970012 1.043894141
H 4.194128496 2.041720520 2.040149666

