9

C -1.918546716 -0.508234774 0.223229322
O -0.808086348 1.479617799 -0.883279609
C 1.804389683 1.778560245 -0.993726013
O 2.756235832 3.528616939 -1.968275709
C 3.101321270 -0.487329168 0.326244907
N 1.719107496 -2.080556678 1.198431767
H 0.131204082 -3.028915847 1.699434219
H -2.921539209 -0.043484563 1.955458207
H -2.858657268 -1.775550781 -1.093054516

