13

C -2.134470432 0.507300795 1.917029832
C -1.040687276 -1.454264912 0.109270786
O -2.981264967 -0.658868641 -1.690179096
C -4.014409117 1.069811432 -0.202421378
C 2.745022575 1.354552398 -1.210742823
O 3.437237493 -0.289442094 0.791787971
C 1.578690848 -1.124909308 -0.940390156
H -3.020149011 -0.226916310 3.625534189
H -0.925279736 2.089107783 2.438259572
H -1.368809115 -3.422924632 0.630297702
H 1.715625808 3.041559664 -0.658593535
H 4.173385653 1.626170671 -2.656802940
H 2.199461609 -2.622266306 -2.204048183

