13

C -1.660346689 0.469208339 1.968243357
C -1.072977196 -1.722194609 0.173676942
O -2.456090045 -0.364919021 -1.788974620
C -1.942836802 1.858085193 -0.523546223
C 2.112956032 1.223883411 -1.211677916
O 3.230228371 0.169192944 0.923073707
C 1.662344281 -1.395885111 -0.668236278
H -3.516756545 0.247631488 2.828074224
H -0.258832102 1.062999858 3.341604312
H -1.734116457 -3.651271899 0.484733006
H -0.135009839 2.990946752 -1.255109850
H 3.319226724 1.990371729 -2.688564928
H 2.630483232 -2.923918374 -1.627628708

