16

C 3.410075477 0.365985148 0.938707053
C 1.599309763 0.534132695 -1.295476403
C -1.121235869 0.018752376 -0.593400025
C -1.747982662 -2.624844743 0.255100800
C -2.722904445 2.123873226 0.202359584
O -2.927305538 1.105418861 -2.270617924
H 3.457897642 -1.531343533 1.746954935
H 2.860490623 1.675278719 2.437548450
H 5.331878455 0.840711298 0.363103769
H 2.161496974 -0.806747458 -2.767130934
H 1.688546524 2.412795532 -2.146278934
H -1.200011824 -3.989556006 -1.193804168
H -0.753755078 -3.105393687 1.997422864
H -3.771873049 -2.813018681 0.586136069
H -1.934229591 4.018670582 0.306558723
H -4.330397403 1.775285671 1.432816161

