16

C 3.518339096 2.439075934 -0.197914230
O 1.577946126 1.145873325 1.078295509
C -1.033711711 -0.976248012 -1.515099259
C -0.324263265 -3.327865569 -0.214884461
C -3.491126171 0.270281669 -1.202536101
O -2.545012507 2.563443894 -0.425892660
H 5.025649679 1.107456534 -0.667447355
H 2.823975729 3.319403130 -1.940254604
H 4.319480436 3.923850210 0.998558194
H 0.099830924 -0.309029049 -3.084098042
H 1.676660449 -3.769080109 -0.336759967
H -1.425412706 -4.824475615 -1.150588909
H -0.921742736 -3.291606449 1.754426477
H -4.535917157 0.348860715 -3.007460426
H -4.698852537 -0.702428057 0.189213307
H -0.083550423 2.114421950 0.848403901

