8

C 0.868532602 -3.208312008 0.332298683
O 1.896423295 -1.568677454 1.763777277
C 3.104838863 0.526176589 1.129039285
C 3.350874402 1.122052930 -1.427036925
N 3.466487279 1.467118678 -3.582395596
H 3.812327569 1.614709482 2.686719875
H 0.918284896 -2.976351660 -1.701150884
H -0.009694711 -4.770695408 1.300182483

