10

O 3.586523174 1.406104883 -0.335125316
C 2.597448703 -0.748149602 0.847038215
C -0.161786011 -1.185400348 0.985444156
O -1.297107728 0.606381744 -0.343083690
C -3.921711777 0.422764955 -0.676218614
O -5.011236171 -1.484025831 -0.998472363
H 2.375757656 2.014726481 -1.541284646
H 3.267122930 -2.516404302 -0.047280230
H 3.313291774 -0.841846665 2.786815040
H -4.714756113 2.336909252 -0.680625587

