11

C -4.533851214 0.272674289 0.755243653
C -1.839334820 -0.202584650 0.481222159
C 0.375001561 -0.631570886 0.265925000
C 3.059155169 -1.227617926 0.015463175
O 3.857878718 -3.369277537 0.076488989
N 4.556207297 0.833770939 -0.288072005
H -5.613892565 -0.956874917 -0.497670505
H -4.989160050 2.231074479 0.303097992
H -5.128818426 -0.103592197 2.692964664
H 6.426585272 0.571714605 -0.473446824
H 3.830229077 2.582283802 -0.330520677

