11

C -4.638803333 -0.056861519 0.634306510
C -1.938745393 -0.568704857 0.823639607
C 0.349154832 -0.621688563 1.048414177
C 3.195089594 0.245667193 0.894562521
O 2.680117361 -2.191595152 1.164105686
N 5.029941133 0.846826528 -0.686476784
H -5.311112746 -0.468820378 -1.272537018
H -5.100271335 1.911780797 1.063477222
H -5.712275713 -1.256387305 1.927524540
H 6.037229843 -0.525921457 -1.560678527
H 5.456488054 2.664250672 -1.014119692

