12

O 4.814441264 -2.951365399 1.017918967
C 4.438578555 -1.393000350 -0.417362191
O 2.262055802 1.258470577 0.329766185
C -0.104991275 0.458220054 1.099471667
C -1.866872155 -0.825552766 -0.729131928
C -2.384753168 1.829283272 0.162680532
H 3.565962727 0.155010436 -1.692425092
H -0.159824173 -0.209744614 3.040209190
H -1.236772893 -1.042006588 -2.664601708
H -3.054347951 -2.344907536 -0.048475670
H -2.038560538 3.338968428 -1.171947369
H -3.935950183 2.150140457 1.455469026

