16

C -4.090584676 -0.316659914 -1.401810744
C -0.616948866 0.649523435 -1.441967632
O -0.559196719 3.020380238 -0.578859357
C 0.609009899 -1.393503055 0.139242202
C 3.487462275 -1.088332978 0.228860271
O 4.868852337 -2.909075048 0.064709627
N 4.300695860 1.301721136 0.571163372
H -4.543269741 -1.202958701 0.393907912
H -3.925374009 -1.683096214 -2.920777668
H -5.558998081 1.044100423 -1.949517532
H -0.303202191 0.396773379 -3.480635110
H -2.785332342 1.755485102 -0.880967038
H -0.095578776 -1.255842724 2.074803331
H 0.232764502 -3.278788663 -0.592409733
H 6.171374660 1.616670885 0.620931709
H 3.045622594 2.743421863 0.547449369

