10

C -0.510823320 -1.246932344 2.859761813
C 0.674164160 0.872437060 2.237076211
N 1.932721835 1.409680490 -0.027948690
C 2.203236640 -0.127898478 -2.076657984
O 1.392278172 -2.245978087 -2.275364349
H 3.284730624 0.808699924 -3.598042075
H 2.731364655 3.125657050 -0.170332316
H 0.746822864 2.446957736 3.545610055
H -0.623653047 -2.853419117 1.610376207
H -1.397762687 -1.355346914 4.697559284

