14

C -4.015870480 0.624691433 -0.015506129
O -3.640489840 -1.808039368 -1.123176240
C -1.416515138 -2.259027591 -2.189882059
C 0.768758200 -0.858453238 -1.884057343
C 2.136189025 1.148641792 -1.621913250
C 4.335909092 1.424175540 0.099895213
H -3.869534530 2.100376220 -1.441747064
H -5.906236277 0.580934408 0.785521185
H -2.614666961 0.969187126 1.458790201
H 1.087755289 -2.924069854 -0.867753581
H -1.436099938 -4.004049752 -3.263501157
H 4.616126903 -0.125538456 1.454276496
H 6.053275394 1.612890186 -1.032568445
H 4.181023945 3.196850460 1.146592668

