11

O 4.618947376 -0.482905263 0.201129221
C 2.121905095 -0.323180508 0.129394215
N 0.565845078 -2.025673627 0.753603957
C -1.935261551 -0.937505149 0.346521952
C -1.407982968 1.750946188 -0.671930561
O 1.306391858 1.919206268 -0.706553612
H 5.017730800 -2.144962891 0.825520791
H -3.008150648 -2.078533121 -0.996957898
H -2.998460718 -0.901824361 2.114954285
H -2.124725851 3.250175092 0.545131601
H -2.090903117 2.052658311 -2.592067065

