14

C 2.361444775 -1.168035050 -0.993398675
C 1.797088915 -0.128781755 1.681842758
C 1.201280756 1.338513631 -0.769873875
C -1.641210207 1.346961349 -1.036344704
C -2.513245190 -0.646281913 0.920228611
C -0.426462658 -1.277559513 2.718657513
H 1.249199203 -2.748226889 -1.668026706
H 4.361104659 -1.311465641 -1.389850743
H 3.458550524 0.237540520 2.815859847
H 2.303882093 2.997600213 -1.233719190
H -2.235935402 0.888726839 -2.959187844
H -4.116125289 0.011110853 2.048318253
H -3.200441468 -2.422095705 0.099910217
H -2.405084164 3.207836666 -0.578234122

