14

C 2.362686363 -1.542550668 -0.784375917
C 1.827393206 0.433079345 1.166455560
C 1.238850439 0.926560309 -1.580165080
C -1.592857917 1.226836335 -0.919844846
C -2.722034132 -1.001401211 0.404699419
C -1.003906005 0.734479928 1.827636130
H 1.335103923 -3.307293122 -0.880019491
H 4.348958879 -1.733930980 -1.243168274
H 3.310742269 1.264403675 2.296576052
H 2.206141149 2.190329130 -2.859170536
H -2.748682710 2.715859811 -1.704400759
H -4.702394432 -0.766720546 0.869018791
H -2.218619483 -2.930750452 -0.047582718
H -1.641381530 1.791098446 3.454341688

