14

C 2.322181690 -1.531768741 -0.804974990
C 1.770311062 0.137811301 1.443026786
C 1.239020949 1.029472375 -1.207045895
C -1.608628041 1.318548788 -0.807557320
C -2.633769636 -0.943692415 0.592247348
C -0.960174776 0.391009261 2.448402243
H 1.280750939 -3.245653336 -1.199322244
H 4.314534192 -1.675352702 -1.245964124
H 3.309983147 0.801145517 2.608089977
H 2.293412991 2.495695700 -2.162206566
H -2.859556948 2.456137156 -1.970151357
H -4.640315436 -0.812382263 1.000063191
H -2.098919865 -2.788625265 -0.103020631
H -1.584355057 2.631861012 1.175319642

