10

O 0.341738828 1.380871918 1.884976940
C -1.174502335 1.016267932 -0.146372082
C -0.488062287 -1.099104304 -1.420894919
C 1.607551615 -2.115652464 -0.077182122
C 2.013338987 -0.535587161 1.893351904
C -3.131733937 2.796669168 -0.584185134
N -4.733145132 4.205932538 -0.985421082
H -1.376194486 -1.826912668 -3.102439006
H 2.663766619 -3.797629374 -0.523204069
H 3.367745272 -0.523627991 3.412284132

