10

O 0.410312038 1.272477038 1.865315058
C -0.971450375 0.846466365 -0.121525755
C 0.090371446 -1.186041702 -1.511265004
C 2.540923064 -1.927091717 -0.256334054
C 2.438963420 -0.380725031 1.822409016
C -3.159659024 2.335442163 -0.536245541
N -4.949935194 3.487331903 -0.962429937
H -0.471123633 -1.651085803 -3.420400052
H -0.269199083 -2.923114409 -0.234446226
H 3.702738855 -0.089731982 3.393302816

