11

O 4.449121488 -2.113115771 -1.494416074
C 2.514972456 -0.267144667 -1.245936704
C 1.504926920 -0.139210058 1.391552593
C -0.895993573 -0.464984876 2.032078891
O -2.754451741 -0.898370017 0.306026085
H -4.331583112 -1.143844647 1.155511381
H -1.500294332 -0.379199455 3.992112220
H 2.847754739 0.205174935 2.898495076
H 0.979949758 -0.615563300 -2.587156442
H 3.402820422 1.522349628 -1.764230471
H 3.766826611 -3.700993107 -0.947251619

