14

O 4.493580413 -2.399248992 -1.298626029
C 2.887844390 -0.248958567 -1.086199005
C 1.516158809 -0.158022017 1.373316471
C -3.263645985 2.228774947 -0.217500088
C -0.998596461 0.071208830 1.646117826
O -2.659057176 -0.682108304 -0.444493631
H 3.594108043 -3.797370330 -0.574808710
H 1.543385001 -0.204071505 -2.664728716
H 4.139109120 1.380532315 -1.309908658
H 2.613268148 0.073619591 3.086207675
H -5.316373706 2.343195388 -0.023606969
H -2.627553041 2.939558106 -2.040462283
H -1.943624855 0.041387459 3.451886669
H -4.026930556 -1.721781213 0.156116530

