14

C 3.896663287 1.335682387 -0.179350089
C 1.817088870 -0.306476425 0.798583029
O 0.012418411 0.898823400 2.584275214
C -0.834542949 0.209522194 0.401404928
C -2.866014444 1.217137278 -1.305690657
O -5.049312489 1.587891037 -0.262058092
H 3.215544443 3.235524914 -0.586164093
H 4.650473356 0.522204687 -1.918082958
H 5.429021887 1.450607196 1.193973261
H 2.299439422 -2.213662221 1.379162944
H -3.560933070 -2.196554001 1.506363055
H -2.761488136 0.085125775 -3.070577996
H -1.745560922 2.986692033 -1.728772954
H -4.620463371 -1.125953325 1.206937160

