16

C -3.387012787 0.836514235 -3.894719817
C -1.354946274 1.802371512 -2.801725697
C 1.146619577 0.500250378 -2.565322659
C 1.958765379 0.171496879 0.186096714
C 4.526087538 -1.067450654 0.426142898
O 5.117247916 -1.278635315 3.026203164
H 6.722824484 -2.095896927 3.198822710
H 4.488608279 -2.937327870 -0.475775042
H 5.950699813 0.074554968 -0.563349146
H 2.021816053 2.008491878 1.132595561
H 0.567138576 -0.971077551 1.199036177
H 2.581394704 1.611391538 -3.565865141
H 1.058227903 -1.339080605 -3.506178576
H -1.467947096 3.681029454 -1.971550548
H -3.362420515 -1.032041363 -4.740223801
H -5.149074514 1.873893168 -3.987428004

