13

C 0.394869045 -1.460721860 -0.846981485
C -0.547612735 0.420790040 1.044404480
O 0.411118139 0.266579583 3.442938287
C -2.351418153 2.088890295 0.548215294
O -3.591071896 2.106261810 -1.729232611
C 3.222662852 -1.681541838 -0.986292945
O 4.679324976 -0.737594518 0.486567684
H -4.332091958 3.735415432 -1.988540830
H -0.300162510 -3.368104546 -0.402925590
H -0.327682384 -1.025444310 -2.730943605
H 2.225665270 0.135848027 3.281137215
H -2.977199202 3.405203933 1.988685318
H 3.947567463 -2.847580071 -2.566952775

