17

C 4.101260268 -0.243467419 -0.266550500
C 2.030876742 1.471836908 0.762407359
C -0.077693803 -0.047706231 1.936493596
O -2.222402620 1.423836617 2.797480994
C -3.961512092 -0.312151197 1.835726142
C -3.189971101 -0.137460228 -1.607929239
C -1.862468828 -1.647533987 0.340094464
H 3.368985442 -1.489409358 -1.741398554
H 4.900478944 -1.431503822 1.220755385
H 5.640337071 0.855766085 -1.083969582
H 1.281717213 2.674811993 -0.738095334
H 2.789634549 2.743082374 2.204004870
H 0.647148088 -1.144703357 3.533289381
H -5.121572763 0.595805381 -0.094002007
H -4.291948336 -1.213691646 -2.958567466
H -2.369720018 1.615777328 -2.271511443
H -1.690120817 -3.671322385 0.109940203

