11

N 0.133856615 -1.943616805 1.114411955
H 0.066715137 -3.586153090 2.090826149
C -1.403427046 -2.108856064 -1.175948958
H -0.669879357 -1.065901362 -2.780180551
H -2.279287420 -3.900799236 -1.647537634
C -2.336684431 -0.719001257 1.056036557
C -2.353343028 2.117400309 1.161508843
H -4.109492539 2.874739234 0.385037745
H -2.167675906 2.782214974 3.106209897
H -0.773073541 2.877378123 0.077687737
H -3.842152493 -1.638810482 2.108910544

