8

C -3.174702397 -0.096491457 -0.306102902
C -2.150090719 -1.885185982 1.657494242
C -0.287930124 -3.451859986 1.228314422
O 1.362864169 -4.839696112 0.843446620
H -2.937254984 -1.942719847 3.544665551
H -5.170039438 -0.468323153 -0.675897700
H -2.160882057 -0.283057579 -2.088935308
H -2.996074864 1.863070725 0.314045629

