14

C -2.991828932 0.354507405 -0.313382675
C -0.887555984 -1.215562172 0.659605578
C -0.298677488 -3.645829753 0.251913343
O 1.163127923 -5.245164612 -0.437479591
C 2.847920411 0.252154604 -2.109059096
C 2.893975569 1.821310971 -0.463179583
N 2.997644980 3.542213556 1.391085188
H -4.703780943 -0.154519277 0.724698101
H -3.356336031 0.133607190 -2.332534763
H -2.644672448 2.338898642 0.115360826
H -2.085553152 -4.074515296 1.516581824
H 3.027436626 -1.158013379 -3.532420560
H 2.644876085 2.860753825 3.134608702
H 2.173844369 5.218645499 1.034340253

