14

C -2.191673273 -1.425505189 -0.697937009
C 0.067881022 0.198092355 -0.084043925
N -0.458522145 -0.191977428 4.538109579
C 0.728103293 0.585644211 2.621550742
C 2.409828775 0.121350672 -1.924168915
C 0.718998101 2.286892774 -1.833329875
O 0.140628675 4.304936537 -2.630102603
H -3.909425231 -0.633681559 0.125324879
H -1.934342048 -3.343527713 0.022144170
H -2.484658982 -1.542419313 -2.734384173
H -2.037420882 -1.181669518 4.046972084
H 2.451404110 1.677938490 2.956501372
H 2.296985953 -1.149878505 -3.526561729
H 4.264926991 0.276520770 -1.065995301

