14

O -2.106230478 -2.515614188 1.839725937
C -1.142006416 -0.717261273 -0.872151957
C -2.196554228 1.068072714 0.754384792
N 0.600821886 2.069865590 -2.490772019
C 1.566991686 -0.241973629 -1.428932944
C 3.228646330 -0.130437987 0.881095312
O 3.664904384 1.800897299 1.994098835
H -3.661187481 -3.414305194 1.520710460
H -2.252554561 -1.486333715 -2.402367324
H -1.025375241 2.001855708 2.142134556
H -4.177235649 1.561525956 0.643791688
H 1.142766086 3.486657876 -1.296706105
H 2.350357525 -1.555412522 -2.814336047
H 4.010327875 -1.956177304 1.529957873

