13

C -3.143748891 0.639456732 0.377842972
C -1.062974743 -1.209785317 0.926348924
O 0.670468820 -1.729513254 -1.057990780
C 1.437502607 -0.437230185 1.808545909
C 2.789734534 0.753425113 -1.573396006
H -4.203171800 1.019504466 2.106884890
H -4.449604426 -0.116148823 -1.029807291
H -2.381783595 2.425960913 -0.306728855
H -1.718118753 -3.037970148 1.611657782
H 2.409864434 -2.022734876 2.722062913
H 1.823057929 2.553530334 -1.561377121
H 4.619306405 0.887643780 -0.660856709
H 3.015407707 0.021860616 -3.489295593

