15

C -2.348755340 2.211743676 -0.944832864
C -1.063651568 -0.188808112 -1.791071990
C 2.350828502 -0.242205763 -0.777372025
C 3.985881925 0.083583172 1.477629675
N 5.215642195 0.385362778 3.239723357
C -0.139240180 -1.924935521 1.109769332
N -2.119102234 -2.440877070 -0.629219160
H -1.231546326 3.887567128 -1.382118816
H -4.062882671 2.303170837 -2.099905735
H -2.939438430 2.293814728 1.045270126
H 2.500810887 1.575719424 -1.730109236
H 3.175734660 -1.667012131 -2.001522190
H -0.535656004 -0.699204619 2.704842708
H 1.082732888 -3.516453471 1.527678995
H -3.788159351 -2.006377652 0.222362807

