14

C -1.784972917 2.661090918 -0.982870481
C -0.397429227 0.703390400 0.594232789
C -0.606620227 -2.115926209 -0.386807606
C 1.837161937 -3.153720503 0.639938064
C 3.590684577 -1.303506228 0.812451691
C 2.454696202 0.963197072 0.512796024
H -1.022695836 2.739112154 -2.901485586
H -1.627657129 4.541694900 -0.150485808
H -3.791950728 2.201208170 -1.123019185
H -1.132947050 0.735085491 2.529007037
H -0.722901047 -2.088277664 -2.452731265
H -2.255354436 -3.149652282 0.311197774
H 1.964202650 -5.018705729 1.485915708
H 3.354155798 2.699600343 -0.113547180

