8

N -2.727707449 0.705428299 0.209477237
C -0.442274356 1.427519826 0.032749615
C 1.643734088 -0.320588352 -0.140267681
N 1.134383431 -2.735943234 -0.110092326
N 0.597216837 -4.776604770 -0.075895918
H -3.916834828 2.205149704 0.311895839
H 0.140142675 3.412056420 -0.003449752
H 3.607866100 0.189269734 -0.295706914

