12

O 2.982152061 -0.029489762 1.822479937
C 2.056426009 -1.238389024 -0.353663454
C -0.812686244 -1.158127159 -0.518787760
C -2.756043628 2.902793239 0.928248193
N -1.715900498 1.445913305 -0.762051713
H 2.492158246 1.718535948 1.779831237
H 2.671883371 -3.203135632 -0.240170717
H 2.884091640 -0.427164332 -2.077561594
H -1.461436744 -2.262871596 -2.140099983
H -2.951509226 1.737972764 2.658775021
H -1.639008771 -1.941450461 1.198865289
H -1.394496767 2.218707525 -2.484961791

