13

C 2.266792400 -0.649927346 -0.654448648
C 1.411432606 0.679876972 1.747672558
C -0.259681855 2.723047252 1.263232989
C -0.247659172 -1.109475083 -1.897152673
C -2.543442881 -0.700644873 -0.344040156
N -1.425986313 0.604543702 1.921317810
H 3.306105769 -2.410950025 -0.250473258
H 3.568531224 0.572175622 -1.695259814
H 2.430590365 0.413892786 3.504645725
H -0.728841817 4.475560892 0.344936547
H -0.295843239 -2.858302906 -2.984799605
H -3.521522793 -2.465009685 0.160913411
H -3.964922708 0.624598005 -1.032580577

