15

N 3.826065084 -1.254486902 -0.558169823
C 1.724429872 -0.265425886 0.807061077
C 1.909003882 2.600566430 1.666816355
N -0.102772850 3.588812105 1.125990326
C -0.763808138 -0.506165731 -0.833519322
C -2.217060194 2.653313504 0.025567843
C -2.320365304 -2.481020994 -0.276188367
H 5.208656029 -1.893674556 0.584911280
H 4.566838783 0.037723148 -1.751605607
H 1.486708070 -1.341002438 2.553990350
H -0.400750402 -0.228984880 -2.841787550
H -3.798671198 2.346523026 1.304238421
H -2.778612929 3.500235596 -1.762462141
H -3.318276361 -3.542712463 -1.715032585
H -2.646319061 -3.035648072 1.671419917

