16

C -1.984397889 -1.998592226 0.368761421
C -3.462988130 -0.167541871 2.020105322
C 0.279154954 1.721562931 -1.857211251
C 2.970655194 2.136671963 -2.212692376
C 2.474310256 0.743450553 0.385204948
C 0.245245217 -0.863304202 -1.014911638
H -1.319027021 -3.599575550 1.497912011
H -3.236676513 -2.808620589 -1.065850869
H -5.077790511 -1.116046001 2.883842442
H -2.292574538 0.585041596 3.544851311
H -4.143524843 1.432379937 0.918830309
H 4.127661443 0.862587335 -3.360942881
H 3.649850599 4.072176778 -2.222720812
H 2.058295893 1.834430735 2.060467718
H 3.971681540 -0.619743922 0.684872917
H 1.323237557 -2.292019866 -2.066320086

