16

C -1.398421351 -1.934407584 1.471289927
C -2.772462967 0.572918152 0.841293882
C -0.869796848 1.061185513 -1.295961855
C 1.680680501 2.205038683 -0.432311077
C 2.886907029 -0.463235179 -0.411670033
C 0.275834554 -1.630447178 -0.908415801
H -0.332442547 -1.920467679 3.238000512
H -2.609450731 -3.600135155 1.473451169
H -4.681187245 0.250318508 0.132200648
H -2.868232586 1.998095228 2.330799446
H -1.598008026 1.731301596 -3.100815806
H 2.536323924 3.518880692 -1.767540818
H 1.592178750 3.135286490 1.407492849
H 3.835956402 -1.056307638 1.322288594
H 4.187139760 -0.739593603 -1.987123705
H 0.134981399 -3.128430847 -2.312977892

