16

C -1.645019876 -2.172833875 0.842771704
C -2.677623376 0.488503860 1.228985653
C -0.560805480 0.939902569 -2.154164270
C 1.776134101 2.289372586 -1.102661827
C 2.762496267 -0.154792418 0.148627791
C 0.469010843 -1.569983501 -0.995690912
H -1.082698457 -3.139253176 2.580889637
H -3.070876686 -3.331860280 -0.095377766
H -4.706030340 0.666224816 1.554214662
H -1.631916818 1.660201993 2.551533328
H -2.654069886 1.433793887 -0.971316658
H 2.914733039 2.886793608 -2.722320501
H 1.489106019 3.956897721 0.074192689
H 2.798696957 -0.141542868 2.213097571
H 4.605589035 -0.793714584 -0.513429461
H 0.928782022 -3.074447513 -2.328210124

