11

O 2.730143892 0.846570810 2.916594948
C 1.342565846 0.353199224 1.173773751
C 2.230076590 -1.051826361 -1.141973270
C -2.674583430 2.133524341 -1.273684157
N -3.192072457 0.005569646 -0.285670408
C -1.333926000 1.205297256 1.251519484
H 4.250181855 -1.391142050 -0.989172510
H 1.241073513 -2.855622009 -1.322017701
H 1.819755198 0.037524405 -2.847839795
H -4.311125201 -1.528550480 -0.434582150
H -1.934488124 2.050325860 3.018538340

