11

O 2.690370335 0.462390207 3.346784619
C 1.244037378 0.075973018 1.617771046
C 1.855008964 -1.125255562 -0.820676724
C -1.361020137 1.482777591 -1.555808476
N -3.013364176 -0.024333852 -0.366120679
C -1.246846267 1.320483867 1.273751923
H 3.858812866 -1.211600324 -1.264149809
H 0.774562078 -2.726196235 -1.502437017
H 0.343393189 0.901186427 -2.779234101
H -3.069747537 -1.931514243 -0.507385814
H -1.994256495 2.717248741 2.562442849

