14

O 2.304946991 -1.468503696 -1.125876829
C 3.058475963 1.061949132 -0.541476832
C 1.310702305 2.680201095 0.916774287
C -2.038896210 -0.719674302 1.443142702
N -0.836430974 1.768386130 1.713938812
C -2.862766610 -1.297038999 -1.240398143
O -3.998590106 -3.175289327 -1.782976176
H 3.496674312 -2.189059007 -2.283862901
H 4.824810720 1.064481857 0.550358375
H 3.459710683 2.124498744 -2.277085833
H -0.774633037 -2.220477575 2.053887729
H -3.714197795 -0.762537410 2.646095998
H -1.907925453 3.010198072 2.686248294
H -2.373419271 0.155292969 -2.667798104

