13

C -3.081030355 -1.889709797 0.958099063
C -2.165175439 0.428378500 -0.405728942
N -1.348943464 2.697139749 1.022240714
C 0.462129311 1.198918976 -0.238005695
C 2.838173506 0.882119317 -0.634537492
C 5.237592933 0.541791170 -1.070073424
H -1.913180630 -2.277903971 2.613993482
H -5.039900859 -1.653116842 1.564083284
H -2.991699297 -3.536408298 -0.279943348
H -3.197130120 0.923093398 -2.109690359
H -1.334877231 2.396400287 2.917809418
H 6.175250979 1.478480505 -2.633882452
H 6.376554055 -0.683505530 0.114646434

