13

C -2.280426812 -1.797450420 0.769610032
C -1.834423176 0.628064839 -0.634434596
N -0.962166188 2.888411799 0.664577296
C 0.754610803 1.618171781 -1.112303436
C 2.937138425 0.287036869 -0.172805344
C 4.767916849 -0.787874329 0.615114225
H -0.773250249 -2.170427026 2.126406593
H -4.073623080 -1.716820984 1.787319901
H -2.363055748 -3.389573801 -0.539358525
H -3.219159886 1.042942626 -2.091285919
H -0.443724909 2.456239201 2.459591897
H 1.091203472 2.676228607 -2.834240665
H 6.398960500 -1.734949183 1.313487799

