14

C -3.232809812 -1.247307266 0.399707443
C -1.367140053 0.581306855 -0.749389338
O -0.236124171 2.303591415 1.053430719
C 2.253006281 1.838240139 0.281637374
C 2.691771453 -0.952297226 0.439148106
C 1.048852348 -0.631768892 -1.872518392
H -4.746598489 -0.202800589 1.330007331
H -2.346924177 -2.479910629 1.792572867
H -4.066823090 -2.414815573 -1.081569611
H -2.313089178 1.737582158 -2.178569818
H 3.680286584 3.216663558 0.814572550
H 4.593094808 -1.611968018 0.038796625
H 1.883964803 -1.772935664 2.137195323
H 2.207019286 1.983785390 -2.012407919

