12

C -3.958664596 0.016361797 -0.673446782
C -1.490579250 -0.064459182 -0.211243829
C 0.384098154 1.963688153 -0.347670830
C 2.626414689 1.032728713 0.274917149
C 2.344300915 -1.715890426 0.867430835
O -0.271391676 -2.220745859 0.510416122
H 2.864372650 -2.174099879 2.818186175
H -5.124068505 -1.651221617 -0.496309411
H -4.822887035 1.774561339 -1.244609304
H -0.067375237 3.882278144 -0.875463437
H 4.404584857 2.032874088 0.359080883
H 3.451160561 -2.927568418 -0.394077836

