8

C 1.036608661 2.757643148 -1.838465452
C 2.799891359 1.073974046 -2.873749396
H 4.216905913 1.432885231 -4.322049633
C 3.768060867 -0.205027537 -0.465147431
H 5.816921735 -0.352458337 -0.399531113
H 2.790726640 0.005805673 1.323197174
O 2.516778959 -1.554407206 -2.312439661
H 1.765825060 4.675092443 -2.232449084

