16

C -4.402090683 -0.222885316 1.055829387
C -1.622217704 -0.297127421 1.603083528
N -0.431855370 -1.946273212 2.866748754
C 0.031732187 0.904974326 -1.961678411
C 2.763948635 0.972814417 -2.134788360
C 4.439153504 -0.300657732 -0.271706126
O 4.047540343 -1.362064532 -2.647650090
H -4.865085451 1.228806223 -0.324628057
H -5.439049775 0.156792617 2.800658909
H -5.021334905 -2.039614703 0.307586866
H -0.558948031 1.512257791 1.286354374
H -1.594097918 -3.388561569 3.392682872
H -0.671877289 2.868677560 -1.987682478
H 3.609627154 2.571094507 -3.123052289
H 6.278742095 0.559465060 0.047297048
H 3.571988780 -1.276691505 1.311079381

