18

C -3.550970849 -2.185726929 0.867703031
C -1.815524649 0.105397415 1.247715881
C -0.532152565 0.616419534 -1.229667201
C 2.006483609 3.741941261 0.236430042
C 1.489476500 -1.177143303 -1.937911023
O 2.870116567 -2.246215626 0.123174050
H -2.454324758 -3.904324293 0.557052201
H -4.809046587 -1.909813687 -0.743210954
H -4.708196193 -2.475689113 2.548320302
H -2.969165447 1.730801594 1.784104210
H -0.517903746 -0.314974618 2.806147184
H 0.425341011 3.026400017 -1.215371518
H 3.051042858 2.296921305 1.244696401
H 3.241225708 4.806793920 -1.021550133
H 0.984434154 4.973564102 1.525395904
H 2.774406569 -0.312980863 -3.309441967
H 0.445208685 -2.666133709 -2.952223693
H 4.070786885 -3.435854422 -0.526921841

