13

C 3.605150884 0.090445410 0.009780410
C 1.264221864 -1.517392668 -0.214881287
N -0.791516304 -0.298507942 -1.310953676
C -2.083607357 1.819065221 -0.174478413
C -3.329536899 -0.695489379 -0.451151098
O 1.179437147 -3.704988706 0.415987188
H 3.551974861 1.106114678 1.807134662
H 3.719682536 1.475893772 -1.507762510
H 5.265317860 -1.120586181 0.007843082
H -1.519778126 2.380304941 1.716306260
H -2.572306010 3.357976446 -1.434014909
H -4.735152532 -0.975277807 -1.912494112
H -3.564228525 -1.841558650 1.231374456

