10

C 4.363231924 1.811934831 1.956456984
C 2.106912159 0.457802934 0.891651738
C 1.783149426 -1.978228896 0.953226896
C 1.461426350 -4.414335485 1.019826343
H 0.507093171 -5.313171679 2.594082874
H 2.136285571 -5.614825712 -0.496814063
H 0.643313228 1.595639103 0.006787688
H 3.786769533 3.169698289 3.400764154
H 5.345695320 2.866680270 0.478378291
H 5.692037162 0.486596313 2.802227816

