19

C 4.792316388 -0.443167346 0.403822605
C 2.537170200 0.354455570 -1.192634900
C 0.227708710 1.012707462 0.382145633
C -2.131390632 1.889382686 -1.269232945
C -4.134870673 0.072336127 -0.417767972
C -3.137689144 -2.395176991 -0.455935658
O -0.594393699 -1.038293163 1.878535129
H 5.332411169 1.056488485 1.716677176
H 4.329421945 -2.110395605 1.522899916
H 6.429920828 -0.878336199 -0.772224600
H 3.015897826 2.005607249 -2.346575201
H 2.049809662 -1.153374555 -2.524906066
H 0.722315553 2.552484918 1.676072385
H -2.629654965 3.854922468 -0.905092378
H -1.661120305 1.716936938 -3.275292065
H -6.127477928 0.471173578 -0.225451999
H -2.950110979 -0.270146913 1.817274649
H -4.132867185 -3.924715099 0.481224068
H -1.673390656 -2.999581118 -1.759150018

