15

C -3.445302958 1.050188535 0.367279195
C -2.241798334 -1.052421284 -1.188531246
N 0.398582111 -0.617559228 -1.831440829
C 2.213389647 -0.542909150 0.033252981
O 1.738264935 -2.302499871 1.838392527
C 4.240478093 0.971594637 0.059037557
H -5.422231005 0.617836319 0.771619888
H -3.378429179 2.852913578 -0.636685562
H -2.459919727 1.281060684 2.164630726
H -2.366141879 -2.844120096 -0.182006232
H -3.255626158 -1.299696861 -2.968456195
H 0.668742271 0.731598058 -3.144345005
H 4.494847928 2.406606905 -1.369296759
H 5.716141545 0.725964274 1.450725171
H 2.971587925 -2.114378675 3.152607927

