15

C -4.247987241 1.130648992 -0.254559602
C -2.246416164 -0.888792337 -0.644793621
N 0.257742335 0.214139985 -0.876970229
C 2.318160901 -0.689057356 0.222131977
O 2.278457226 -2.809796018 1.435310959
C 4.784253116 0.410550711 0.499512006
H -6.112667521 0.264629499 -0.112391253
H -4.297912482 2.456210459 -1.837565262
H -3.893952342 2.197703163 1.473486299
H -2.173433863 -2.190807117 0.949241104
H -2.670948655 -2.013854297 -2.325978679
H 0.469845479 1.769744994 -1.945769732
H 4.988185272 2.453612992 0.463397847
H 6.163074378 -0.558195504 -0.682100859
H 4.256186649 -1.882564138 2.153831356

