11

C -2.102905732 -0.126601408 1.518320448
C -0.899970823 0.021590045 -1.047891932
C -2.683573311 0.361443966 -3.240915056
H -1.675550235 0.405766529 -5.036770226
H -3.747436396 2.119586628 -3.035711378
H -4.063021641 -1.174204741 -3.292775414
N 1.481735823 -0.141885154 -1.227316042
H 2.039070783 -0.014713427 -3.066350717
H -3.433116001 -1.704768349 1.602697702
H -3.179945291 1.591501396 1.913196504
H -0.660321009 -0.375514584 2.960766408

