15

C -2.163436967 0.024259964 1.875644811
C -0.661967849 0.141494283 -0.502254584
C -2.075946521 0.179995072 -2.947725503
N 1.800989367 0.191990864 -0.588830667
C 3.710839279 -0.123950614 1.224370072
O 2.985315065 -0.236950982 3.783211179
H -3.642165385 -1.408975528 1.686710258
H -3.119469198 1.833501141 2.180509036
H -0.960418778 -0.360294106 3.494648186
H 3.911136151 -1.991670896 2.526629667
H -0.833900820 0.397790562 -4.579943070
H -3.442690034 1.728673006 -2.966314738
H -3.151016853 -1.570583696 -3.187348463
H 2.536259787 0.332898746 -2.348834898
H 5.317657227 1.079352357 0.737493286

