16

C -2.661050761 1.187529635 -1.352783520
C -1.507372773 -0.891794639 0.277520870
C -2.439735978 -0.793050157 3.015602745
C 1.330015060 -1.135773079 0.316582794
O 2.305608584 0.422524866 -1.302279852
C 5.001079460 0.415619164 -1.538340282
H -2.069816457 1.035946425 -3.320774995
H -2.096799762 3.054167067 -0.675428500
H -4.721283076 1.089918175 -1.292060478
H -2.070382487 -2.747787660 -0.477449850
H -1.900818061 0.992176948 3.903065906
H -1.620305112 -2.323314543 4.124280553
H -4.495827978 -0.940492334 3.090838185
H 5.784977729 -0.968681227 -0.233247856
H 5.461855462 -0.055294917 -3.488769059
H 5.673324376 2.312264899 -1.103864165

