8

C -1.720410160 0.914067329 4.033438735
C 0.119609762 2.000005288 2.772602183
C 1.257325384 3.497178850 0.830920457
H 1.546644816 2.709838255 -1.039960298
H 1.262063967 5.542409593 0.975278639
O 2.652285531 2.210251908 2.838279350
H -3.650554767 1.158199630 3.418875592
H -1.326666087 -0.224656934 5.683338621

