13

N 4.720431112 -2.336689288 2.322372174
C 3.111552682 -0.993589046 1.771853154
C 1.104404948 0.749989100 1.041310791
C 0.595430498 1.210507136 -1.788880153
C -2.127456203 0.248663089 -1.326154595
C -2.410017691 -2.338301318 -0.382802596
N -1.510644966 -0.295852555 1.387997924
H 1.326327883 2.510533527 2.088650186
H 1.681818513 0.052508195 -3.093106329
H 0.779299016 3.197903188 -2.288428876
H -3.735119010 1.433942249 -1.793274220
H -0.806538115 -3.564753718 -0.823947481
H -2.566492211 0.201163160 2.895202247

