17

C -3.354370149 -0.667362148 0.879867104
C -2.074631007 1.450666117 -0.528934097
C 0.067260039 2.875651877 0.612431400
C 0.568083628 1.155739263 -1.592960586
C 1.986400280 -1.249117737 -1.343000823
C 3.091276110 -1.943391455 1.750474285
O 4.802888933 -0.999796683 0.281575844
H -4.903472516 0.072210763 2.023940767
H -2.041530281 -1.618553449 2.152158665
H -4.150203721 -2.062924305 -0.418759454
H -3.325742140 2.539043863 -1.734369831
H 0.216484625 4.886598377 0.274390501
H 0.784839864 2.204931932 2.406406292
H 0.923083723 2.098051876 -3.374971244
H 3.131739341 -1.686958493 -3.002793993
H 0.903803131 -3.005322635 -1.012044810
H 3.420698346 -4.037117861 2.005996305

