15

C -3.475989427 -0.527046241 -0.031753862
C -1.246256559 1.265748045 -0.148318821
O -0.732788775 2.193115758 2.285006166
C 1.151827285 0.056561317 -1.181632215
C 3.567305831 0.966052372 -0.123370392
N 2.445501645 -1.618657762 0.637667464
H -5.119611095 0.433145505 0.755186300
H -3.962396257 -1.217973330 -1.914914076
H -3.054724668 -2.147277578 1.178119706
H -1.698110390 2.829208796 -1.444334250
H 1.056096292 2.697054920 2.197095483
H 0.962449043 -0.806257906 -3.042525466
H 1.701557874 -1.705381603 2.395437226
H 5.156520545 0.567635820 -1.374636162
H 3.116642036 -3.270921469 -0.035214064

