11

C -2.821741279 -0.168804624 -0.722750020
N -0.713871445 0.164882346 0.991134575
C 1.745990230 0.194313319 0.215280397
O 1.923146857 0.417096420 -2.314388214
N 3.752258353 0.089722666 1.532526937
H -2.772196591 1.263038140 -2.198802586
H -2.837434037 -2.030737261 -1.621422035
H -4.567463546 0.065105487 0.342421284
H -0.977427276 -0.345636729 2.797080240
H 3.394231805 -0.063435630 3.405562849
H 3.709307070 0.485483132 -2.661292627

