12

C -1.287630506 2.386837951 -1.011073718
C -1.417101029 -0.114647832 -1.031813481
O -3.192117981 -1.480579821 -2.294787729
C 0.339067020 -1.901850683 0.311782266
C 2.361659146 -0.700950726 1.742049376
C 4.032046876 0.261840527 2.923219761
H -4.319421836 -0.349590206 -3.156065861
H -2.636621988 3.533237791 -2.040210931
H 0.183683930 3.332100426 0.038339784
H 1.149987580 -3.180835787 -1.095726777
H -0.794502865 -3.086576644 1.571078143
H 5.519656534 1.119092957 3.970420696

