17

C 3.735693978 0.572202230 0.407277365
C 1.018563666 -0.031239932 -0.146041928
C -0.250933822 -2.401402524 0.891523577
C -2.295242756 -1.967634223 -1.088730614
C -3.373740598 0.575586521 -0.404422367
C -0.958648539 2.015442460 0.436796607
O 0.669971387 -0.561563147 -2.824889525
H 4.325123820 2.208199382 -0.705196165
H 4.944370064 -1.021822745 -0.085621147
H 3.991662370 1.008832295 2.407443752
H -0.894211939 -2.253916449 2.844850551
H 0.830782243 -4.125951789 0.596222935
H -0.930227077 -2.080453612 -3.103782903
H -4.725450508 0.309343423 1.137792478
H -4.362875654 1.464135726 -1.972117938
H -0.627480725 3.706076262 -0.690231103
H -0.965711938 2.538170205 2.431855120

