18

C -3.007591421 -3.157528698 -0.190617865
C -0.904730797 -2.323811295 -1.261390298
C -0.082029345 0.382256786 -1.559888395
C -1.984437837 2.297030947 -0.557866824
C 2.574841040 0.762865599 -0.435142170
C 2.724552419 0.464140263 2.424583209
H -4.405539566 -1.889904590 0.605659226
H 1.985896611 -1.366545828 3.026955917
H -3.411123368 -5.161078545 -0.074953341
H 0.418555175 -3.706893720 -2.017440317
H 0.112728683 0.702295530 -3.600497264
H -1.272492685 4.217704909 -0.808500803
H -2.360193890 2.023231912 1.452644698
H -3.783674823 2.155996529 -1.556333423
H 3.862479162 -0.585400644 -1.331788077
H 1.645931612 1.925716752 3.402213763
H 3.247978587 2.643141109 -0.972423943
H 4.677591720 0.602997415 3.072346931

