16

C -2.410989955 2.700461850 -0.184985064
C -0.115238957 1.075577516 -0.024892342
C 0.106167478 -1.484156845 0.334940406
C -2.051556771 -3.289913235 0.684302598
C 2.734164756 -2.212369724 0.455416947
C 3.977274619 0.126529863 -0.135331999
N 2.236921424 2.088147311 -0.294963420
H -4.111448179 1.545779473 -0.115162027
H -2.444294961 3.784631327 -1.941649695
H -2.484704940 4.035932890 1.387564931
H -1.350251268 -5.217212444 0.514417032
H -3.536574386 -3.022408027 -0.727117631
H -2.926176408 -3.108240030 2.547842560
H 3.832118992 -1.433044365 -1.842605086
H 5.966298160 0.546807901 0.081752065
H 2.602711344 3.892432814 -0.755582538

