12

N -3.477669620 -1.048436230 1.522314762
C -1.178693729 -0.340269264 0.547763139
N 0.879866726 -1.621521113 0.567846449
C 2.738881173 -0.058226015 -0.441120829
O 5.075018188 -1.040000474 -0.667016498
C 2.127744897 2.371880504 -1.096355017
N -0.824930819 2.036081274 -0.525910497
H -3.533492281 -2.876504786 2.048823584
H -5.011836196 -0.501519991 0.539986765
H 5.016467821 -2.727255974 0.000678884
H -0.209777382 2.088188772 -2.534110677
H -1.824558881 3.573693880 -0.006454473

