13

O 3.765921659 -2.120814326 -1.029774958
C 2.800454667 -0.290305604 -1.986905650
C 0.200121260 0.477254452 -1.470036793
C -0.800514669 -0.422547240 3.119081238
C -1.438405423 -0.983061684 0.364455623
C -0.636853597 2.510488042 -2.656628311
O -1.351041570 4.274679584 -3.705776741
H 3.862737355 0.906527133 -3.334341018
H -1.960213495 -1.574723954 4.376500711
H 1.178529455 -0.846854363 3.504340156
H -3.429433983 -0.592603694 -0.009579645
H -1.130004973 -2.984367821 -0.032886034
H -1.139920650 1.561526126 3.571782308

