13

O 1.695298307 2.335046190 -2.752744959
C 0.859693370 0.934661036 -0.736770900
C 1.095570573 -1.909389575 -0.370435472
C -1.329534578 -1.783102750 1.306996457
C -1.483779335 1.045042546 0.791584258
N 0.952396002 2.093936090 1.737515904
H 0.768706554 -2.964690198 -2.111543254
H 2.839162230 -2.548574338 0.520109794
H -2.902788874 -2.851915046 0.519146222
H -1.062406408 -2.276201498 3.288840986
H 0.972576349 1.661440349 -4.273165366
H -3.135494548 2.239251343 0.653900589
H 0.897268515 3.991469108 1.435931224

