13

O 1.888504832 1.986898506 -3.005953823
C 1.395722122 0.864429062 -0.830331203
C 1.274267459 -1.967094951 -0.292393695
C -1.352363944 -1.688374464 0.990064234
C -1.443057645 1.122406158 0.435528903
N 1.014344002 2.131961348 1.502221985
H 1.217846435 -3.053394528 -2.036378339
H 2.809977734 -2.611605302 0.913449691
H -2.827467924 -2.748039674 0.023358867
H -1.373619338 -2.139351443 3.001186913
H -0.478153641 1.647175543 -2.338719288
H -3.036532369 2.406424906 0.524722407
H 1.077200469 4.015538096 1.122614519

