16

C 1.584268091 0.657899212 -2.932876658
N 0.558857494 -0.021737368 -0.497032609
C 1.786921773 -1.768840382 1.195244328
C -0.696596910 -2.311230085 0.043918577
C -2.988716780 -1.444743583 1.816886688
O -4.750904419 -2.775246004 2.198226938
C -1.213500897 2.745239950 1.185507892
H 2.711429291 2.374637936 -2.736596343
H 0.036561457 1.025321516 -4.242075459
H 2.781108615 -0.838366885 -3.699234244
H 3.478249067 -2.704584873 0.514761415
H 1.799079950 -1.178193292 3.166670815
H -0.945378183 -3.702232824 -1.436017811
H -2.986009426 3.100307092 0.226422524
H -1.414639472 2.902141718 3.208897596
H 0.297571318 3.958957882 0.483406928

