14

O 1.071831569 -2.507804857 -1.880496513
C 0.507023119 -0.046803754 -1.991965297
C -1.833770748 0.807890535 -0.621050781
C -2.903299572 -0.616362843 1.291949910
O 2.129241749 -0.599570188 2.888901692
C 3.054400618 0.957010373 1.455840244
H 1.172239388 -2.934617909 -0.082086471
H 1.019583835 0.854584137 -3.762909001
H -2.435727415 0.121560242 -2.613273798
H -2.082152741 2.845293578 -0.595931332
H -2.710102987 -2.647549878 1.356453727
H -4.084034772 0.267928828 2.699488112
H 2.650852571 2.991029937 1.659284852
H 4.586808918 0.458534032 0.137135686

