18

C 3.568152787 2.479552866 -0.593241855
C 2.749151211 -0.106030643 0.498163724
C 0.813019308 -0.998497534 -1.306098365
C -2.192758808 -3.412584391 0.755332338
C -1.840419712 -0.756585680 -0.448492462
C -2.642373880 1.321911896 1.394796799
H 4.294746945 2.269271834 -2.507865593
H 2.003526773 3.820945740 -0.639875269
H 5.047044402 3.274365835 0.599632795
H 2.162708704 0.150115081 2.472389727
H 4.398890243 -1.345540918 0.444256111
H -1.662853694 -4.921052620 -0.542824264
H -1.078901034 -3.600255379 2.481987457
H -4.182183179 -3.637286471 1.244530842
H -3.079855210 -0.705624188 -2.102452878
H -4.646767471 1.122108053 1.845774572
H -2.380068707 3.195044921 0.571976748
H -1.600454238 1.251449885 3.172896367

