18

C 3.511550444 2.127618795 -0.600356428
C 2.506663009 -0.350181425 0.501502246
C 0.373256229 -1.189931137 -1.214676571
C -1.830721543 -3.137900359 0.731329472
C -2.211367470 -0.499840724 -0.369141123
C -2.794358788 1.610803664 1.482245350
H 4.051503420 1.875345781 -2.573886275
H 2.087475929 3.618991371 -0.521280120
H 5.161291121 2.773207745 0.453843278
H 2.013671050 -0.051718762 2.496037949
H 4.022380700 -1.751135274 0.454341674
H 0.000418650 -3.802666949 -0.362898318
H -1.495943351 -3.174172688 2.754529239
H -3.147112717 -4.554353230 0.045424197
H -3.583280423 -0.515908573 -1.903460937
H -4.709675206 1.412617540 2.224342915
H -2.686351756 3.440132781 0.535082698
H -1.504772265 1.648813974 3.088214206

