13

C -2.963323283 -0.103538642 0.880458664
C -0.739956884 -1.695981254 0.563230131
C 0.825402797 -0.552621776 -1.640450348
C 2.639643509 0.333834179 0.370978409
N 0.377624179 0.417414423 2.072244491
C -0.824570769 1.795334172 -1.975061545
H -4.304811154 0.361720868 -0.570647892
H -3.599321684 0.122847902 2.814738143
H -0.549959624 -3.629575103 1.257470931
H 1.340396006 -1.558151207 -3.368885306
H 3.628481916 2.120085515 0.076973269
H 3.925055193 -1.086418705 1.186437279
H 0.297348840 3.503801811 -1.591757322

