16

C 2.990662253 1.516148283 -2.937997552
O 2.268564982 0.311967497 -0.670093747
C -2.365939583 -0.370924401 3.735474203
C -1.290023693 -0.770949564 1.508981856
N -0.101472057 1.204926983 0.100015758
O 0.319476456 3.322383946 1.627717752
C -1.370112289 -3.230792322 0.114633527
H 4.764974016 0.639756518 -3.502761082
H 1.565291197 1.234070471 -4.406503024
H 3.305916286 3.538732624 -2.644111181
H -2.258144787 1.432872891 4.680126088
H -3.394561752 -1.887246861 4.640379705
H -0.384051591 4.688594480 0.662108766
H -2.006298359 -2.944486096 -1.827417999
H -2.663817188 -4.525987818 1.053137434
H 0.498427341 -4.094022277 0.036552217

