15

O 3.996790010 -2.090551628 -0.713721211
C 2.890014873 -0.355694418 0.844390349
C 2.284863057 2.013377368 0.174317408
C -2.250721697 1.125825825 -1.515508384
C -2.992431793 0.164849503 1.087234159
C -1.593848266 -2.094541332 0.231787438
O -1.526441981 -1.300409363 -2.138019905
H 3.958178011 -1.459632339 -2.414953259
H 2.824131272 -1.022355439 2.775653183
H 1.638430590 3.347167061 1.574274577
H 2.700342646 2.749552324 -1.687315178
H -3.419785514 2.080346049 -2.904691072
H -2.512448500 1.136068292 2.827860099
H -5.021641399 -0.244733706 1.005011684
H -1.045606290 -3.971120461 0.790990336

