12

C -2.459202651 -0.767415549 -0.599668378
C -1.022964649 -0.725031203 1.894041050
O -1.721623610 -2.081762833 3.626116470
C 0.956560259 1.083727697 2.324957943
C 2.729147534 0.638266639 -1.155958585
O 2.037344330 2.427844082 0.423368931
H -2.094160571 0.851797112 -1.820615817
H -2.060427523 -2.500003407 -1.639781348
H -4.456008689 -0.793976160 -0.094269876
H 1.522492737 1.603866630 4.220432256
H 2.489052992 1.008576634 -3.154700062
H 3.739521977 -0.979340756 -0.441190806

