15

C -1.712203816 2.239752101 0.235416770
C -0.533510843 -0.292350042 -0.327769689
C 2.017491320 -0.204539742 -1.397725364
C 3.898186916 1.369366490 -0.294334311
N 4.178238640 3.295750013 0.963804090
C -1.297895158 -2.532015991 1.227356784
N -2.085616476 -2.339875687 -1.384099872
H -0.449051405 3.394995576 1.394515797
H -2.069057789 3.276793925 -1.510659045
H -3.491661284 2.016716627 1.252932961
H 2.637840465 -1.807434410 -2.509337709
H 5.446743360 -0.107516535 -0.199524484
H -2.662342540 -2.172468686 2.715208139
H 0.069901687 -4.001471353 1.626796661
H -3.905763112 -1.758873910 -1.511393298

