14

C -2.026071338 -1.658087729 -0.196443456
C -4.451564620 -1.687868037 0.411738838
C 1.342660654 3.496019617 -0.387575175
C 2.889973601 1.534327676 -0.436317844
C 2.293791125 -1.046126758 0.568572784
O -0.178211945 -1.290340109 1.535458223
H -1.376610283 -1.950887224 -2.125825974
H -0.536654138 3.358168102 0.413294517
H -5.848894257 -2.038241666 -1.033570699
H -5.071121081 -1.381641263 2.336322586
H 1.916378463 5.307710975 -1.145136331
H 4.769931958 1.722746353 -1.244425263
H 3.565611464 -1.497853127 2.131645480
H 2.626177359 -2.468897910 -0.905603832

