14

O 4.139193950 0.309129960 0.293758002
C 2.794949007 -1.724502040 -0.741784041
C -1.091274998 1.902995781 -0.328198374
C 0.397286175 -2.341502817 0.704781900
N -1.522029603 -0.349724641 0.483599094
C -3.212812976 3.655901105 -0.322307190
O -4.002427252 4.707596772 1.548790770
H 3.091002837 1.782737353 0.021760914
H 2.320375622 -1.388070338 -2.733129659
H 4.026490949 -3.378129978 -0.664189770
H 0.824213422 -2.600597478 2.709013919
H -0.429542950 -4.092523856 -0.015303777
H -3.256693570 -0.852989057 1.150873313
H -3.954216559 4.113853781 -2.233014396

