14

O 4.276410403 0.067901752 0.150364053
C 2.025645961 -0.525912500 -1.017738536
C -0.429682884 1.347741995 0.803972074
C -0.220266534 -2.018557391 0.978982937
N -1.370666433 -0.258412356 2.729085191
C -2.306463647 2.263432618 -1.033281250
O -4.484348969 2.627499184 -0.419430685
H 3.991099251 1.649799957 1.010817169
H 1.462806020 0.726231236 -2.564030786
H 2.342418918 -2.342390421 -1.964859198
H 1.178240440 -3.217870413 1.881832474
H -1.519663306 -2.995987596 -0.274328178
H -3.290491869 -0.354699024 2.538510035
H -1.576849934 2.918028343 -2.881570311

