11

O -3.686003724 -1.743465367 -1.732841685
C -3.186393131 0.176817384 -0.638886488
C -0.754683425 0.582006204 0.784037883
C 0.715827727 2.929577971 -0.065606302
N 3.059292627 2.064646526 -0.634373369
C 3.124591188 -0.436723682 -0.319941310
N 1.028641065 -1.460691549 0.535327342
H -4.478367192 1.811464175 -0.589563389
H -1.222220358 0.951742705 2.774075186
H 4.773044904 -1.585103880 -0.734310666
H 0.645435939 -3.320294457 0.623622944

