9

C 2.359964477 0.155050347 0.994270160
C 2.261347211 -0.006738555 -1.666667993
C -0.317444887 -0.088015846 -1.952537163
C -1.727435727 0.024074676 0.469380020
O 0.245472948 0.184292819 2.307778462
H 4.018355224 0.265517557 2.202735824
H -1.340052322 -0.213825081 -3.729160798
H -2.848368068 -1.659636246 0.887145535
H -2.926752434 1.692611873 0.678655264

