12

O 4.943579516 1.623252121 -0.404331339
C 2.656364505 1.638469764 -0.230005389
C 1.404513733 -1.235045664 -0.708034969
C -0.821115613 -1.167090943 0.867200402
C -2.587757809 0.721373374 0.358840207
O 1.035210377 3.288946999 0.135466529
H 1.012504316 -1.182122165 -2.729153581
H 2.768363073 -2.696612138 -0.262205793
H -2.970732824 -1.844057151 -0.039386692
H -0.791327369 -1.950240314 2.762641153
H -3.954487319 1.301719870 1.768727962
H -2.705819866 1.509439472 -1.520474679

