13

N 0.831075963 -1.503041691 -0.979768307
C 0.679248941 -0.607778252 1.493464370
C 2.069034923 -1.287868876 3.473660887
C -0.990292966 -0.172488891 -2.549280510
C -1.792432385 1.998535062 -0.826456735
O -1.230325809 1.106903506 1.648289934
H 2.584326898 -1.738302219 -1.665340385
H 3.433144365 -2.794800720 3.301041303
H 1.808217853 -0.363668476 5.271469618
H -0.149359380 0.496870849 -4.307055941
H -2.586120097 -1.398404494 -3.017795602
H -3.801230077 2.434073357 -0.913978304
H -0.701317125 3.717539719 -1.197016646

