13

N 3.186263779 -0.707425683 -0.949660586
C 1.857153558 -0.035669790 1.017110561
C 0.961639238 -1.688083069 2.808508415
C -1.694944400 -0.632130680 -1.785562096
C -1.457780653 1.933541825 -0.740587013
O 0.593290950 2.270106866 0.933982832
H 3.538842285 0.821306853 -2.058795386
H 1.677626741 -3.601173219 2.858136554
H -0.220336548 -1.014520200 4.329889294
H -3.231701942 -0.862603020 -3.132398062
H -0.580437770 -2.264982194 -1.364949671
H -3.209474605 2.423482141 0.268119407
H -1.327595058 3.292278057 -2.313306591

