11

N 3.489661841 -1.365370910 -0.959727610
C 1.136416341 -0.436157671 -0.311135980
C -0.141912139 1.709602892 -0.890559760
C -2.439670064 1.587631010 0.543414936
C -2.372716028 -0.591497354 1.850829079
O -0.171047993 -1.854557093 1.341894653
H 3.565742252 -3.268739799 -0.989739220
H 0.455582752 3.179615061 -2.165265768
H -3.945734485 2.959202905 0.572167175
H 4.185572459 -0.605673418 -2.557813020
H -3.643325960 -1.512034671 3.143249172

