11

N 2.870686622 -1.014751295 -1.458790409
C 1.944110968 0.356358222 0.429322910
C 0.317785472 2.412680750 -0.175968387
C -2.012763944 1.328017657 0.063982366
C -1.620129311 -1.181382223 0.967931762
O 0.749662895 -1.195921115 2.142322660
H 3.563076359 -2.676480167 -0.777269999
H 0.846895635 4.063318744 -1.242387477
H -3.798555113 2.054450735 -0.605927378
H 0.260368053 -1.936411733 -1.487378035
H -3.055921337 -2.344945860 1.850659212

