9

N -0.939454458 0.016350043 -0.617774317
C 1.453553033 0.395067466 0.999496386
C 3.115011032 -1.574708137 0.334552861
N 4.469564262 -3.138673502 -0.382134313
C -2.602897161 2.038022514 -0.375019475
N -4.015173795 3.656890830 -0.148757502
H -1.917389636 -1.635183134 -0.287061927
H -0.325363293 -0.056955155 -2.450113994
H 0.869416503 0.481156453 2.960277460

