11

O 2.479147028 -1.910331868 -3.089221014
C 1.651353293 -0.428329481 -1.616491361
O -1.919344180 -2.187532486 3.386141774
C -2.033128162 -2.148139539 1.120335018
C -1.054246817 -0.002542532 -0.452460055
C 0.295555112 2.115345062 0.922921925
C 2.580242161 1.731753808 -0.093356118
H -2.855531453 -3.747617961 0.050531106
H -2.449787223 0.542344916 -1.876989465
H -0.402216962 3.460878988 2.291732968
H 4.403913078 2.630086200 0.106849726

