11

O 2.828698608 -1.778602367 -3.153268368
C 2.196534272 -0.518982591 -1.490910859
O -0.425728764 -2.999088561 2.543489520
C -1.811859808 -2.160271203 0.932752167
C -1.617164009 0.273903859 -0.404132728
C 0.013205009 2.212040968 0.477504123
C 2.459233340 1.384872090 0.312416080
H -3.482969111 -3.262591121 0.318780583
H -3.320700030 0.767247439 -1.440316522
H -0.563072320 4.085873287 1.084300416
H 4.203766005 1.952759980 1.206730292

