10

O -1.046413940 2.210352706 1.060891320
C -1.947087079 0.080110876 2.203931681
C -0.788191935 -2.345214201 1.328852916
H -1.102302816 -2.612981023 -0.697131986
H 1.252636822 -2.337089002 1.660807536
H -1.597381336 -3.952024760 2.323400034
C -3.727986692 0.272307702 3.956836135
H -4.477780092 2.095450176 4.495713366
H -4.455263457 -1.400121858 4.871974883
H 0.215550004 1.765959967 -0.159100030

