12

N -2.151756740 -2.137960548 -0.009537712
C -1.789209816 -0.418413615 1.638221775
O -2.689555957 0.337150403 3.720694673
C -0.019953354 1.625998592 1.866760907
O 2.464221745 1.740752041 -1.173902480
C 2.499281626 0.305383257 -3.008218603
O 1.043765658 -1.563435883 -3.464368783
H -0.416208929 -1.921095692 -2.008030974
H -3.597247672 -3.331752471 0.362261197
H -0.636557136 3.502076208 1.366850811
H 1.580386273 1.393355618 3.104306452
H 3.939280201 0.618160180 -4.471611950

