15

C 4.861728447 -0.075353528 0.889074511
O 2.243580459 0.627921957 0.977258014
C 0.688450887 -0.920719619 -0.234188071
O 1.239058422 -2.744911856 -1.410082529
C -2.342486174 -0.165119053 0.594294753
C -2.287443497 1.253307278 -1.738480968
O -3.836704752 -2.068664707 0.655308851
H 5.125237112 -1.912257405 1.779819653
H 5.860719351 1.385705327 1.927093267
H 5.509070572 -0.161244113 -1.063539601
H -2.043825353 0.977155647 2.304953492
H -1.540378616 3.164626302 -1.824961355
H -5.751443764 0.899177535 -1.712230046
H -2.368555248 0.180198274 -3.479421887
H -5.764602929 -0.471595838 -0.883776324

