16

C 4.137446615 -0.843546530 -0.982262273
N 2.300010648 0.831782550 0.169722917
C -4.595232428 1.357841221 0.821450624
C -2.162393158 2.575949440 0.114428416
C -0.287872676 0.468633201 -0.640140114
C -1.611399910 -1.809356299 0.400586903
C -3.902582155 -1.227211691 1.358182826
H 3.776846487 -2.868460411 -0.681923489
H 4.179894456 -0.507861307 -3.018893325
H 6.012595581 -0.415178707 -0.243168503
H 2.412603876 0.768723901 2.077087557
H -1.507257311 3.494065224 1.859655725
H -2.361558102 4.084562667 -1.274928882
H -0.273276526 0.359378212 -2.709618556
H -0.778382329 -3.685640122 0.342066507
H -5.173043252 -2.578310728 2.227328286

