15

C -2.737842787 -1.520782402 1.486491470
C -2.951684139 0.667698935 -0.368207447
C -0.448706473 2.005927160 -0.839000113
C 5.621021973 -0.883386114 -0.444783213
C 3.383269013 -0.217284187 -1.256668572
N 1.331583986 0.326684420 -2.111154235
H -2.031330938 -0.876500727 3.317627429
H -4.570488052 -2.413578105 1.794631856
H -1.445089290 -2.966499780 0.783989884
H -4.294442302 2.068997941 0.342431073
H -3.688428696 -0.005919737 -2.176750182
H 0.343819114 2.712707975 0.940522626
H -0.750456183 3.617053287 -2.092097840
H 5.832734056 -2.540481643 0.728625141
H 7.266584219 0.210529682 -0.958001856

