15

C -4.007336741 -0.738774066 1.658575619
C -2.731729844 0.664448606 -0.500828238
C 0.000360692 0.211604256 -0.761548554
C 5.203443541 0.820211644 -0.041446267
C 4.496258608 -1.083314319 -1.618940106
N 3.312983957 -2.522407924 -2.830890426
H -3.211770981 -0.171360894 3.475113879
H -6.030792094 -0.353365179 1.705396135
H -3.751915387 -2.775407632 1.458569727
H -3.027675185 2.715020565 -0.353660714
H -3.594593948 0.176322030 -2.326945973
H 0.956333757 -1.008833523 0.540778862
H 1.025034145 1.198580904 -2.201840227
H 5.753495610 0.370727076 1.875210288
H 5.873100515 2.580119725 -0.836146211

