11

O 1.951510040 -2.619472913 -1.345016386
C 2.754126859 -0.616173001 -0.407485915
C 1.204353659 1.224890881 0.622739591
C -1.532446359 1.324654020 -0.288705252
C -1.939329168 -1.307637282 0.196667842
H 4.798151635 -0.224293521 -0.471134593
H 1.856977983 2.611973988 1.975817889
H -2.543102598 2.549884542 1.023794409
H -1.805064032 1.932659701 -2.235397360
H -2.047002947 -1.937191113 2.138604472
H -2.308717656 -2.682853798 -1.260979132

