17

C -3.556447729 -0.652153575 0.042357115
C -2.676691004 1.776858188 -1.141093470
C -0.802117932 -0.092999016 -0.176855670
C 1.163484533 -1.620513246 -1.642469199
C 3.040643979 -1.165755965 0.553545247
C 4.000978550 1.396006129 0.953517706
C 0.977766199 0.253916320 2.035971803
H -4.334259663 -2.098851608 -1.177862344
H -4.411481923 -0.556992164 1.899456759
H -2.854661650 1.973992338 -3.169892780
H -2.938438255 3.512075051 -0.088341333
H 0.623737915 -3.597492316 -1.864847899
H 1.765966940 -0.869064655 -3.465262661
H 4.021056229 -2.737987597 1.428647992
H 3.367592091 2.598682486 -0.621701224
H 1.911773332 2.257407472 2.456232096
H 0.565784531 -0.342827481 3.955008411

