10

N 3.316398068 -1.042545991 -0.177894641
C 1.270058642 -0.119677924 0.827062543
C -1.090919692 -1.327338603 0.328784775
C -2.131142738 1.274433131 1.060846061
O 0.511958781 2.173281381 1.526684338
H 4.859784845 0.046168409 -0.436117515
H -1.701052486 -3.031042753 1.278348323
H 1.222232263 -1.834956816 -1.406565541
H -3.219855778 1.406570795 2.803089569
H -2.941800172 2.443163449 -0.427749751

