13

O 3.194354245 3.732828076 -0.334305798
C 1.711249486 1.993289371 -0.166646065
N 2.405755565 -0.407049804 0.531780723
C 0.806528647 -2.573171788 0.053834971
C -1.922335673 -2.266010998 0.249480093
C -2.648066888 0.389433361 0.212279002
N -0.825476553 2.233489095 -0.657506905
H 4.288087494 -0.658902543 0.618544172
H 1.514621026 -4.225276418 1.061350392
H 0.775138709 -3.167507019 -1.978909859
H -1.386334643 4.035287510 -0.888475109
H -4.480491565 0.716336668 -0.671965369
H -3.034203131 0.501910503 2.291488947

