10

C -3.198891799 -0.542461777 0.462044557
N -0.734253766 -0.528446339 0.113057098
N 0.822201374 1.346643611 0.929536987
C 3.174840026 0.712275514 -0.009225719
N 3.056894886 -1.444667295 -1.105665924
N 0.641708643 -2.289716309 -1.041065391
H -4.215891773 -2.131124502 -0.287996227
H 0.097521395 3.089365332 1.139442360
H -4.032867716 0.926548574 1.591411294
H 4.832161055 1.851860114 0.293989172

