10

C -2.990059053 -0.053840244 0.258651085
N -0.263328233 -0.124429225 0.119266020
N 1.218943176 1.213561179 1.598662173
C 3.474948943 0.533066115 0.781912470
N 3.348667126 -1.148616016 -1.115706379
N 0.955383527 -1.540277818 -1.506880537
H -3.605490090 -0.700972306 2.111485013
H -3.709484554 -1.301482596 -1.204426432
H -3.644482605 1.869960270 -0.057671720
H 5.214901782 1.253030641 1.554222674

