14

C -2.677673492 1.487956272 -1.230921885
C -0.840920226 -1.785951002 1.575109307
C -1.035547145 -3.931567927 2.272102228
O 2.424139954 3.641517076 -1.078931988
C 1.989220035 1.493342483 -0.415921256
N 3.683487553 -0.402806934 -0.606465856
C -0.612920404 0.821824790 0.691553118
H -4.541772605 1.248207512 -0.390009973
H -2.547906452 0.267715686 -2.887256572
H -2.443241571 3.443515031 -1.825184456
H -1.232610185 -5.829711118 2.909292045
H 5.402678122 -0.005242951 -1.303563373
H 3.279066188 -2.154236174 -0.000826604
H -0.815858641 2.071320339 2.326123167

