16

C 1.966751853 1.401169164 0.743018807
C 1.393942643 -1.405779434 1.117502961
C -0.667133755 -1.951132775 -0.844648618
O -2.131362985 -4.120138179 -0.335804427
C -2.323093275 0.399529280 -0.753654961
C -0.522974807 2.531748330 -0.158963289
N -1.092621088 4.832269809 -0.423408313
H 0.369441363 5.968529058 0.107397180
H 2.665944037 2.343790633 2.437514737
H 3.380799953 1.681926133 -0.740329235
H 0.590112487 -1.739761806 2.991836775
H 3.049386154 -2.618435642 0.909083366
H 0.205813776 -2.106706595 -2.724226970
H -1.086414283 -5.589698893 -0.510108910
H -3.660189895 0.189289482 0.811712733
H -3.410773636 0.751927411 -2.463320648

