16

C 2.286815371 1.494769755 0.630931100
C 1.413142090 -1.183634664 1.089050073
C -0.641841850 -1.755249623 -0.855009873
O -1.942003055 -4.038351607 -0.409456314
C -2.528272538 0.391554239 -0.684307190
C -1.159428859 2.847086437 -0.321889693
N -1.340810820 5.131498700 -0.295484021
H 0.776583026 3.939027375 0.500742180
H 3.231000286 2.342252471 2.263340910
H 3.485163839 1.680384211 -1.037110931
H 0.586391843 -1.379591742 2.973697653
H 2.949678723 -2.562163566 0.940224465
H 0.208218812 -1.771425962 -2.750463777
H -0.765248997 -5.412270409 -0.524518619
H -3.755280139 0.074367791 0.947674370
H -3.718183379 0.572174470 -2.355488037

