8

O 0.781587872 -0.677697135 0.477808369
C -0.765309979 0.898368108 -0.739486890
C 3.220053254 -0.427283064 0.040836415
C 5.451361567 -0.342273413 -0.238173862
C -3.279374138 0.338012024 -0.034477524
C -5.518131506 0.140598723 0.335294239
H 7.438487181 -0.231378464 -0.516201764
H -7.491729308 -0.059547122 0.681464815

