8

O 0.886704076 -2.810696907 -0.033448871
C -0.360484855 -0.935161813 -1.338211199
C 2.493813854 -0.779101276 -0.435594212
C 4.394708582 0.425038901 0.072415666
C -2.581672608 -0.010431402 -0.172805835
C -4.579912419 0.826206857 0.519404926
H 6.019524243 1.598614911 0.240201179
H -6.344938351 1.556955653 1.155049249

