13

C 1.534500283 0.599057751 0.107376468
H 0.973805182 2.417210272 -0.681876756
H 1.540160088 0.761127032 2.166062798
C 4.105720816 -0.285014919 -0.831715276
H 5.683747916 0.460405711 0.268811746
H 4.392725919 0.246029907 -2.816782241
O 4.096615321 -2.958302885 -0.604454185
C 1.578721008 -3.858014759 -0.324693366
H 1.247453965 -5.369476768 -1.692172171
H 1.355347614 -4.647942257 1.577322422
C -0.153166460 -1.587457722 -0.727350634
H -0.633549070 -1.391135738 -2.725918086
H -1.908485304 -1.727326614 0.340927474

