19

C 1.994311996 1.738269943 -0.472752690
C 3.915576082 -0.278208825 -0.002045288
O 3.180014323 -2.642870859 -1.102966488
C 0.782986949 -3.341285912 -0.327882393
C -1.279833836 -1.636071645 -1.147339488
O -2.526326725 1.034108270 1.475365310
C -4.325010493 2.690647822 0.426526134
H -0.672898781 1.499906069 0.823856661
H 1.968786634 2.372564377 -2.435566675
H 2.329292805 3.363205450 0.761422188
H 4.190572504 -0.557026028 2.039926111
H 5.768014470 0.098035854 -0.836357426
H 0.386160658 -5.175611579 -1.222234720
H 0.658156007 -3.637900027 1.728452381
H -1.110265499 -0.754572536 -2.982013827
H -3.153275851 -2.321344693 -0.688871521
H -6.073692581 1.659492155 0.041908645
H -3.634125394 3.524876509 -1.342033699
H -4.759786491 4.215925127 1.750312695

