12

N 4.177100892 0.996359176 0.999774667
C 2.007305016 0.865966902 -0.370533889
O 1.808546722 1.830815160 -2.465153493
C -0.128582124 -0.390585471 0.859030133
C -2.623020873 -0.119166961 -0.327232724
N -3.723752175 -2.432301549 -0.390320512
H 5.577724416 2.086719604 0.329299744
H 4.223477965 0.478588807 2.821396480
H 0.158626257 -1.853946636 2.257988431
H -1.529200773 0.087644572 -2.196326497
H -3.682403607 1.641319415 -0.068522263
H -5.520430585 -2.350530246 0.315719397

