9

C -3.911161133 1.398087342 0.095170141
C -1.160374289 0.784983313 0.341267890
O -0.045621163 2.220339001 2.123645571
H 1.706854455 1.716874577 2.166805158
N 0.140084207 -0.816701761 -0.856588172
H -0.918671761 -1.767763182 -2.135997671
H -4.136938260 3.382612182 -0.414964714
H -4.809779971 0.221371608 -1.330496279
H -4.850982009 1.116830634 1.907974624

