14

O -0.860751617 4.128586407 -0.149038958
C -2.533432416 2.686443427 0.734781812
N -2.306350642 1.349086006 2.804532507
C -0.635659894 -2.384846652 1.392628149
C 1.757181414 -3.028258411 0.136982373
C 1.886324107 -0.379491833 -0.599691225
C 1.923938898 1.806500148 -1.357604249
H -4.247437066 2.340752652 -0.390446481
H -0.661909494 1.897314792 3.651353384
H -2.378273920 -2.633607440 0.366668114
H -0.770299139 -2.479790518 3.419073068
H 3.279661698 -3.593961004 1.395966332
H 1.621165126 -4.291971769 -1.481419596
H 2.626374684 3.399304322 -2.370274011

