13

O -6.047125205 0.299576449 -0.992887598
C -3.826818518 -0.120699642 -0.863532368
C -1.630686984 1.304611831 0.487570524
C -0.124554324 -0.845356529 -0.652603368
C 3.843406950 0.194925703 0.985397121
O 2.303700339 -1.374851798 -0.567297861
C -2.068880703 -2.034317876 -1.806592537
H -1.756605294 1.354039923 2.545947241
H -1.243330110 3.192007791 -0.249479054
H 3.543629150 2.186493175 0.545062531
H 5.788486497 -0.318185301 0.572639890
H -2.237398466 -3.713890828 -2.951123608
H 3.444681446 -0.150538833 2.979451510

