13

O -5.499497049 -0.840374870 0.191825853
C -3.272737269 -0.540780809 -0.180998837
C -1.582244705 1.861534756 0.103860123
C 0.556258818 0.136817381 -0.727444667
C 3.321193947 0.046631581 0.739254907
O 2.811502176 0.715456585 -1.828339108
C -1.171050354 -2.035493513 -1.018232397
H -1.464178188 2.742984146 1.960769547
H -1.962298543 3.275601319 -1.344284420
H 3.754890080 1.609492137 1.990237917
H 4.469064694 -1.650740209 0.896043046
H -0.880972688 -3.892045514 -1.811408939
H 0.902441697 -1.446923893 1.037271766

