14

C -3.923201523 0.233619811 1.163486895
C -1.256817275 0.049701233 0.315486432
C -0.158711956 0.690797208 -1.847860735
C 2.589057336 -0.043652352 -1.755103131
C 2.865807992 -0.750970775 1.049133218
O 0.350759719 -0.996916003 2.041154376
H -4.646299348 -1.638541782 1.643036098
H -4.059397732 1.404926071 2.856274248
H -5.098944861 1.046864412 -0.315557788
H 3.868949527 1.487775331 -2.275825178
H -1.110860101 1.502204731 -3.457184516
H 2.995665190 -1.637359852 -3.009824511
H 3.820038615 0.741426864 2.113648844
H 3.851095357 -2.530266123 1.368152114

