14

C -3.252648611 -0.254020179 0.622012462
C -0.581332706 0.655676535 0.391859845
C 0.267549277 2.691083196 -1.255770877
C 1.472171541 -0.557551618 -1.252355726
C 2.865754796 -0.868626389 1.247830417
O 0.895132444 0.330139103 2.652665177
H -3.315299438 -2.128093570 1.475222768
H -4.308469040 1.033292947 1.838731695
H -4.177920486 -0.307822043 -1.217823192
H 2.356731024 1.285028542 -2.216225805
H -0.939427492 2.588946787 -2.947815227
H 1.028243921 -2.023486855 -2.605583029
H 4.664937603 0.129422656 1.409636818
H 3.096292256 -2.847765094 1.790293196

