11

C -0.485759751 0.444427869 2.777302177
O -0.049794737 -1.931642140 2.322306034
C 0.056166175 -2.504575750 -0.326162685
H 0.863384950 -4.324192809 -0.764979919
C -2.085029546 -1.367179850 -1.837065939
H -3.178570553 -2.366133016 -3.243913711
O -3.281330723 0.545267585 -0.426931083
C -0.787896892 1.607480372 0.143966404
H -0.726811836 3.646753564 -0.043486019
C 0.483239461 -0.160173961 -1.782949777
H 1.922807103 0.210962694 -3.178063691

