13

C 0.250706393 0.927556384 2.664633890
O 0.524573932 -1.558182312 2.427505387
C 0.266220062 -2.298004817 -0.158284216
C -2.047133262 -1.293415241 -1.495115896
O -3.075631578 0.742030480 -0.110167802
C -0.550033909 1.844605247 0.079063892
C 0.484249066 -0.079173780 -1.856878263
H 3.269067723 2.231164316 2.205255548
H 2.193790579 2.132272246 3.527126172
H 1.033054880 -4.141982581 -0.572203779
H -3.284832839 -2.386534008 -2.698278517
H -0.500276419 3.864179159 -0.288028031
H 1.737356222 0.207356397 -3.439277850

