9

C 4.717531554 -2.945380523 0.169939933
C 2.838905491 -1.288921189 0.275572865
O 0.711215132 -1.714542107 1.648132369
H -0.429291767 -0.311024751 1.492514329
C 2.952685032 1.153812272 -1.120635560
O 4.678591063 1.841196030 -2.413573456
H 1.246596823 2.369459916 -0.879897547
H 4.636613576 -4.719295594 1.180266907
H 6.357334274 -2.493380880 -0.958717722

