15

C -3.245431671 0.551251630 0.623881742
C -2.219515213 -0.821685687 -1.371734411
C 1.459732135 -2.217746410 -0.300716975
C 2.168449768 0.058138086 0.709352183
O 1.067371834 0.960522523 2.693015970
C 3.803404414 1.851580132 -0.752400315
O 4.877348640 1.318739593 -2.680367334
H -1.077797661 0.844970401 2.158412090
H -4.539036792 -0.401275614 1.898568248
H -3.585169601 2.555031060 0.346936955
H -1.589337830 0.137249202 -3.066029388
H -2.751020679 -2.775158453 -1.661527919
H 0.636085215 -3.630952014 0.921889133
H 2.326668788 -2.850438981 -2.042382226
H 3.946206237 3.748354822 0.121700668

