11

C -2.761375792 0.164784609 -1.623857173
N -0.422980403 0.226891177 -0.946020954
C 0.957652048 2.280349560 0.380478271
H 1.037840403 4.007112884 -0.738830626
H 0.202535593 2.626180174 2.265096843
C 3.260014499 0.458504798 0.185886463
O 5.418613029 0.647108989 0.875414456
C 1.656190387 -1.304524960 -1.070125032
H 1.741573694 -3.162151819 -1.903816735
H -3.488141197 -1.487427753 -2.576267065
H -3.945226433 1.772425911 -1.212982772

