13

C -2.879266961 -0.249776969 -0.803464759
N -0.422226780 0.270578092 -1.076447357
C 0.955187071 2.299859130 0.249862253
C 3.126418440 0.348776792 0.468683826
O 5.216321287 0.430837847 1.315201062
C 1.400485574 -1.540801896 -0.594768904
H -3.601223769 -1.870523673 -1.826181476
H -2.151551289 -1.993883917 1.646824092
H -4.164816803 1.328544305 -0.572079775
H 1.305551535 3.966443106 -0.904267814
H 0.087884397 2.800104520 2.059590771
H -0.485453350 -2.541341411 1.674706340
H 1.657603789 -3.282322640 -1.634765088

