15

C 2.957591536 0.336184073 0.518858323
C 0.128358116 0.169759899 0.160436595
C -1.398977591 1.594184240 2.102002367
C -3.498629385 -2.446136385 -1.392603300
O -3.376447177 -0.236804245 -2.636367291
C -0.657465520 -0.123247163 -2.493295446
C -0.709503891 -2.447787874 -0.861597836
H 3.507432221 -0.490134051 2.327310331
H 3.981054412 -0.656586551 -0.972202032
H 3.560925567 2.309550288 0.511698396
H -0.819839141 3.575292834 2.137837489
H -1.070973198 0.799217675 3.976444047
H -3.417217489 1.516798160 1.716340124
H 0.377418237 0.334541863 -4.194395080
H 0.517009963 -4.071828766 -0.737521273

