10

N 3.700584038 -0.099088054 0.290671871
C 1.298842251 -0.535352249 1.039875374
O 0.749340659 -1.581552933 3.001856877
N -0.447511883 0.396157971 -0.779921530
C -2.749658148 0.073817937 -0.216948024
O -4.598523065 0.836874455 -1.719863594
H 5.125904808 -0.651733848 1.408923107
H 4.037293889 0.784603969 -1.348987287
H -3.834094341 1.611734788 -3.186818301
H -3.420052626 -0.831922598 1.504183615

