10

O -4.911809497 1.600003954 -3.124229702
C -2.953419323 1.211413600 -2.346166189
C -0.617223046 0.704143966 -1.337440285
N 0.205746672 -1.434523775 -2.451292220
O 1.458530628 -2.660732324 -0.487874127
C 1.872244136 -0.992392112 1.638230355
C 0.085712799 1.163156325 1.107562661
H 1.492022339 -2.060552680 3.367833182
H 3.863352744 -0.382473859 1.671758254
H -0.480479950 2.680411327 2.333756149

