9

O -3.111091740 3.295181773 -0.119289491
C -1.816945383 1.429575924 0.055858188
N 0.875368819 1.431119905 0.045164265
C 1.723976149 -0.935199267 0.100397634
N -0.146287535 -2.522967321 0.389766444
N -2.485399357 -1.058060737 0.385024347
H 1.911907919 3.022873674 -0.017777995
H 3.684892376 -1.485772882 -0.020884100
H -1.705979758 -2.892776235 -1.096442114

