29

C    -0.26647   3.39320   1.28234
N    -0.57538   1.97536   1.24911
C     0.26145   1.07706   1.78967
O     1.23970   1.36815   2.48086
C     0.02681  -0.37641   1.43556
N    -1.19927  -0.76317   1.00312
C    -1.51756  -1.03822  -0.19363
C    -2.97853  -1.25390  -0.64328
C    -3.42363  -2.65855  -0.85402
O    -3.63828  -0.26448  -0.84479
C    -0.03295  -0.94500  -1.19659
C    -0.35926  -1.36356  -2.53588
N    -0.82155  -1.74362  -3.53602
C     0.96522  -0.53464  -0.48146
C     2.32531  -0.12096  -0.13024
O     3.15709  -0.85179   0.37899
O     2.49909   1.20091  -0.29440
C     3.68427   1.77570   0.29759
H     0.63501   3.61049   0.67109
H    -1.11122   3.95165   0.86860
H    -0.07058   3.72836   2.30477
H    -1.33913   1.65550   0.66254
H     0.53009  -1.08824   2.15524
H    -4.51582  -2.69752  -1.08828
H    -2.86330  -3.04357  -1.71651
H    -3.20120  -3.29800   0.00988
H     3.61120   2.86792   0.13702
H     3.72357   1.57719   1.38766
H     4.59560   1.39144  -0.17465
29

C    -0.26572   3.39294   1.28139
N    -0.57545   1.97536   1.24946
C     0.25954   1.07681   1.79321
O     1.23967   1.36935   2.48183
C     0.01882  -0.37545   1.45161
N    -1.19097  -0.76343   0.99886
C    -1.53356  -1.04007  -0.18082
C    -2.98462  -1.25391  -0.63896
C    -3.42638  -2.65917  -0.85439
O    -3.64292  -0.26374  -0.84768
C    -0.01037  -0.94568  -1.21689
C    -0.36233  -1.36611  -2.53945
N    -0.82974  -1.74617  -3.53731
C     0.97798  -0.53532  -0.49803
C     2.32890  -0.11918  -0.12845
O     3.15807  -0.85064   0.38339
O     2.50092   1.20219  -0.29172
C     3.68552   1.77758   0.29942
H     0.63525   3.61030   0.67079
H    -1.11093   3.95159   0.86820
H    -0.07035   3.72855   2.30442
H    -1.33998   1.65563   0.66371
H     0.52809  -1.08846   2.15883
H    -4.51666  -2.69802  -1.08817
H    -2.86439  -3.04262  -1.71726
H    -3.20165  -3.29892   0.00909
H     3.61150   2.86841   0.13730
H     3.72388   1.57789   1.38822
H     4.59589   1.39181  -0.17410
29

C    -0.26497   3.39269   1.28045
N    -0.57551   1.97536   1.24982
C     0.25762   1.07657   1.79675
O     1.23964   1.37055   2.48281
C     0.01084  -0.37450   1.46766
N    -1.18266  -0.76368   0.99460
C    -1.54956  -1.04193  -0.16801
C    -2.99070  -1.25392  -0.63465
C    -3.42913  -2.65979  -0.85477
O    -3.64755  -0.26301  -0.85056
C     0.01221  -0.94636  -1.23719
C    -0.36540  -1.36866  -2.54302
N    -0.83794  -1.74872  -3.53861
C     0.99073  -0.53601  -0.51460
C     2.33249  -0.11740  -0.12666
O     3.15905  -0.84949   0.38779
O     2.50275   1.20347  -0.28904
C     3.68677   1.77947   0.30126
H     0.63548   3.61011   0.67050
H    -1.11064   3.95154   0.86779
H    -0.07012   3.72873   2.30407
H    -1.34082   1.65575   0.66488
H     0.52609  -1.08868   2.16242
H    -4.51750  -2.69852  -1.08807
H    -2.86547  -3.04167  -1.71801
H    -3.20209  -3.29985   0.00831
H     3.61180   2.86890   0.13758
H     3.72419   1.57860   1.38878
H     4.59619   1.39218  -0.17354
29

C    -0.26421   3.39243   1.27950
N    -0.57557   1.97536   1.25017
C     0.25570   1.07633   1.80029
O     1.23961   1.37176   2.48378
C     0.00285  -0.37355   1.48370
N    -1.17436  -0.76394   0.99034
C    -1.56556  -1.04379  -0.15520
C    -2.99678  -1.25392  -0.63033
C    -3.43189  -2.66041  -0.85514
O    -3.65219  -0.26227  -0.85344
C     0.03479  -0.94704  -1.25749
C    -0.36847  -1.37122  -2.54659
N    -0.84614  -1.75127  -3.53990
C     1.00349  -0.53670  -0.53118
C     2.33608  -0.11562  -0.12488
O     3.16003  -0.84834   0.39219
O     2.50458   1.20475  -0.28636
C     3.68802   1.78135   0.30309
H     0.63572   3.60993   0.67021
H    -1.11035   3.95149   0.86738
H    -0.06988   3.72892   2.30373
H    -1.34167   1.65588   0.66605
H     0.52409  -1.08890   2.16601
H    -4.51834  -2.69903  -1.08797
H    -2.86655  -3.04071  -1.71876
H    -3.20254  -3.30078   0.00753
H     3.61211   2.86938   0.13786
H     3.72450   1.57930   1.38933
H     4.59649   1.39255  -0.17299
29

C    -0.26346   3.39217   1.27856
N    -0.57563   1.97536   1.25053
C     0.25378   1.07609   1.80383
O     1.23958   1.37296   2.48475
C    -0.00514  -0.37260   1.49975
N    -1.16605  -0.76419   0.98608
C    -1.58155  -1.04565  -0.14239
C    -3.00286  -1.25393  -0.62602
C    -3.43464  -2.66104  -0.85551
O    -3.65682  -0.26153  -0.85632
C     0.05737  -0.94773  -1.27779
C    -0.37154  -1.37377  -2.55017
N    -0.85434  -1.75382  -3.54119
C     1.01625  -0.53738  -0.54775
C     2.33967  -0.11384  -0.12309
O     3.16101  -0.84719   0.39659
O     2.50641   1.20603  -0.28367
C     3.68927   1.78324   0.30493
H     0.63596   3.60974   0.66992
H    -1.11006   3.95144   0.86697
H    -0.06965   3.72911   2.30338
H    -1.34252   1.65600   0.66722
H     0.52209  -1.08912   2.16959
H    -4.51919  -2.69953  -1.08787
H    -2.86763  -3.03976  -1.71951
H    -3.20299  -3.30171   0.00675
H     3.61241   2.86987   0.13814
H     3.72481   1.58000   1.38989
H     4.59678   1.39291  -0.17243
29

C    -0.26271   3.39191   1.27761
N    -0.57570   1.97536   1.25088
C     0.25186   1.07584   1.80738
O     1.23955   1.37416   2.48573
C    -0.01313  -0.37165   1.51580
N    -1.15774  -0.76445   0.98182
C    -1.59755  -1.04750  -0.12958
C    -3.00894  -1.25394  -0.62170
C    -3.43739  -2.66166  -0.85588
O    -3.66146  -0.26080  -0.85920
C     0.07995  -0.94841  -1.29809
C    -0.37461  -1.37632  -2.55374
N    -0.86254  -1.75637  -3.54248
C     1.02900  -0.53807  -0.56432
C     2.34326  -0.11206  -0.12130
O     3.16199  -0.84604   0.40100
O     2.50823   1.20731  -0.28099
C     3.69052   1.78512   0.30676
H     0.63619   3.60956   0.66963
H    -1.10977   3.95139   0.86657
H    -0.06942   3.72930   2.30303
H    -1.34337   1.65613   0.66839
H     0.52008  -1.08933   2.17318
H    -4.52003  -2.70003  -1.08777
H    -2.86871  -3.03881  -1.72026
H    -3.20343  -3.30264   0.00597
H     3.61272   2.87036   0.13842
H     3.72512   1.58071   1.39045
H     4.59708   1.39328  -0.17188
29

C    -0.26196   3.39165   1.27667
N    -0.57576   1.97536   1.25124
C     0.24995   1.07560   1.81092
O     1.23952   1.37537   2.48670
C    -0.02112  -0.37069   1.53184
N    -1.14944  -0.76470   0.97756
C    -1.61355  -1.04936  -0.11677
C    -3.01502  -1.25394  -0.61738
C    -3.44014  -2.66228  -0.85626
O    -3.66609  -0.26006  -0.86208
C     0.10253  -0.94909  -1.31839
C    -0.37768  -1.37887  -2.55731
N    -0.87073  -1.75892  -3.54378
C     1.04176  -0.53875  -0.58089
C     2.34685  -0.11027  -0.11951
O     3.16297  -0.84488   0.40540
O     2.51006   1.20860  -0.27831
C     3.69178   1.78700   0.30859
H     0.63643   3.60937   0.66933
H    -1.10948   3.95134   0.86616
H    -0.06919   3.72948   2.30269
H    -1.34421   1.65625   0.66956
H     0.51808  -1.08955   2.17677
H    -4.52087  -2.70054  -1.08767
H    -2.86979  -3.03786  -1.72101
H    -3.20388  -3.30357   0.00518
H     3.61302   2.87084   0.13870
H     3.72543   1.58141   1.39101
H     4.59738   1.39365  -0.17132
29

C    -0.26121   3.39139   1.27572
N    -0.57582   1.97537   1.25160
C     0.24803   1.07536   1.81446
O     1.23949   1.37657   2.48767
C    -0.02910  -0.36974   1.54789
N    -1.14113  -0.76496   0.97330
C    -1.62955  -1.05122  -0.10396
C    -3.02110  -1.25395  -0.61307
C    -3.44289  -2.66290  -0.85663
O    -3.67073  -0.25933  -0.86496
C     0.12511  -0.94977  -1.33869
C    -0.38075  -1.38143  -2.56088
N    -0.87893  -1.76148  -3.54507
C     1.05451  -0.53944  -0.59747
C     2.35044  -0.10849  -0.11772
O     3.16395  -0.84373   0.40980
O     2.51189   1.20988  -0.27563
C     3.69303   1.78889   0.31043
H     0.63666   3.60918   0.66904
H    -1.10919   3.95129   0.86575
H    -0.06896   3.72967   2.30234
H    -1.34506   1.65638   0.67073
H     0.51608  -1.08977   2.18036
H    -4.52171  -2.70104  -1.08756
H    -2.87087  -3.03691  -1.72176
H    -3.20432  -3.30450   0.00440
H     3.61332   2.87133   0.13899
H     3.72574   1.58211   1.39156
H     4.59767   1.39402  -0.17077
29

C    -0.26045   3.39113   1.27478
N    -0.57588   1.97537   1.25195
C     0.24611   1.07511   1.81800
O     1.23947   1.37777   2.48864
C    -0.03709  -0.36879   1.56394
N    -1.13283  -0.76521   0.96904
C    -1.64555  -1.05307  -0.09116
C    -3.02718  -1.25396  -0.60875
C    -3.44565  -2.66352  -0.85700
O    -3.67536  -0.25859  -0.86784
C     0.14769  -0.95045  -1.35899
C    -0.38382  -1.38398  -2.56445
N    -0.88713  -1.76403  -3.54636
C     1.06727  -0.54013  -0.61404
C     2.35404  -0.10671  -0.11593
O     3.16493  -0.84258   0.41420
O     2.51372   1.21116  -0.27294
C     3.69428   1.79077   0.31226
H     0.63690   3.60900   0.66875
H    -1.10890   3.95124   0.86534
H    -0.06873   3.72986   2.30199
H    -1.34591   1.65651   0.67190
H     0.51408  -1.08999   2.18395
H    -4.52255  -2.70154  -1.08746
H    -2.87195  -3.03596  -1.72251
H    -3.20477  -3.30543   0.00362
H     3.61363   2.87181   0.13927
H     3.72605   1.58282   1.39212
H     4.59797   1.39439  -0.17021
29

C    -0.25970   3.39088   1.27383
N    -0.57595   1.97537   1.25231
C     0.24419   1.07487   1.82154
O     1.23944   1.37898   2.48962
C    -0.04508  -0.36784   1.57999
N    -1.12452  -0.76546   0.96478
C    -1.66155  -1.05493  -0.07835
C    -3.03326  -1.25397  -0.60444
C    -3.44840  -2.66414  -0.85737
O    -3.68000  -0.25786  -0.87072
C     0.17027  -0.95113  -1.37929
C    -0.38689  -1.38653  -2.56803
N    -0.89533  -1.76658  -3.54766
C     1.08003  -0.54081  -0.63061
C     2.35763  -0.10493  -0.11415
O     3.16591  -0.84143   0.41860
O     2.51555   1.21244  -0.27026
C     3.69553   1.79266   0.31410
H     0.63713   3.60881   0.66846
H    -1.10861   3.95119   0.86493
H    -0.06850   3.73004   2.30165
H    -1.34675   1.65663   0.67307
H     0.51208  -1.09021   2.18753
H    -4.52340  -2.70205  -1.08736
H    -2.87304  -3.03501  -1.72326
H    -3.20521  -3.30635   0.00284
H     3.61393   2.87230   0.13955
H     3.72636   1.58352   1.39268
H     4.59827   1.39475  -0.16966
29

C    -0.25895   3.39062   1.27289
N    -0.57601   1.97537   1.25266
C     0.24227   1.07463   1.82509
O     1.23941   1.38018   2.49059
C    -0.05307  -0.36689   1.59603
N    -1.11621  -0.76572   0.96052
C    -1.67755  -1.05679  -0.06554
C    -3.03934  -1.25397  -0.60012
C    -3.45115  -2.66476  -0.85775
O    -3.68463  -0.25712  -0.87361
C     0.19285  -0.95181  -1.39959
C    -0.38996  -1.38908  -2.57160
N    -0.90353  -1.76913  -3.54895
C     1.09278  -0.54150  -0.64719
C     2.36122  -0.10315  -0.11236
O     3.16689  -0.84028   0.42301
O     2.51738   1.21372  -0.26758
C     3.69678   1.79454   0.31593
H     0.63737   3.60863   0.66817
H    -1.10832   3.95114   0.86453
H    -0.06827   3.73023   2.30130
H    -1.34760   1.65676   0.67424
H     0.51008  -1.09043   2.19112
H    -4.52424  -2.70255  -1.08726
H    -2.87412  -3.03405  -1.72401
H    -3.20566  -3.30728   0.00206
H     3.61423   2.87279   0.13983
H     3.72667   1.58423   1.39324
H     4.59856   1.39512  -0.16910
29

C    -0.25820   3.39036   1.27194
N    -0.57607   1.97537   1.25302
C     0.24036   1.07439   1.82863
O     1.23938   1.38138   2.49156
C    -0.06105  -0.36593   1.61208
N    -1.10791  -0.76597   0.95626
C    -1.69355  -1.05865  -0.05273
C    -3.04542  -1.25398  -0.59580
C    -3.45390  -2.66538  -0.85812
O    -3.68927  -0.25639  -0.87649
C     0.21543  -0.95249  -1.41989
C    -0.39303  -1.39163  -2.57517
N    -0.91172  -1.77168  -3.55024
C     1.10554  -0.54218  -0.66376
C     2.36481  -0.10137  -0.11057
O     3.16787  -0.83912   0.42741
O     2.51920   1.21500  -0.26490
C     3.69803   1.79643   0.31776
H     0.63761   3.60844   0.66787
H    -1.10803   3.95109   0.86412
H    -0.06804   3.73042   2.30096
H    -1.34845   1.65688   0.67541
H     0.50807  -1.09064   2.19471
H    -4.52508  -2.70305  -1.08716
H    -2.87520  -3.03310  -1.72476
H    -3.20611  -3.30821   0.00128
H     3.61454   2.87327   0.14011
H     3.72698   1.58493   1.39379
H     4.59886   1.39549  -0.16855
29

C    -0.25744   3.39010   1.27100
N    -0.57614   1.97537   1.25337
C     0.23844   1.07414   1.83217
O     1.23935   1.38258   2.49253
C    -0.06904  -0.36498   1.62813
N    -1.09960  -0.76623   0.95200
C    -1.70955  -1.06050  -0.03992
C    -3.05151  -1.25399  -0.59149
C    -3.45665  -2.66600  -0.85849
O    -3.69390  -0.25565  -0.87937
C     0.23801  -0.95317  -1.44019
C    -0.39610  -1.39419  -2.57874
N    -0.91992  -1.77423  -3.55153
C     1.11829  -0.54287  -0.68033
C     2.36840  -0.09959  -0.10878
O     3.16885  -0.83797   0.43181
O     2.52103   1.21628  -0.26221
C     3.69929   1.79831   0.31960
H     0.63784   3.60825   0.66758
H    -1.10774   3.95104   0.86371
H    -0.06781   3.73060   2.30061
H    -1.34929   1.65701   0.67658
H     0.50607  -1.09086   2.19830
H    -4.52592  -2.70356  -1.08705
H    -2.87628  -3.03215  -1.72551
H    -3.20655  -3.30914   0.00049
H     3.61484   2.87376   0.14039
H     3.72729   1.58563   1.39435
H     4.59916   1.39586  -0.16799
29

C    -0.25669   3.38984   1.27005
N    -0.57620   1.97537   1.25373
C     0.23652   1.07390   1.83571
O     1.23932   1.38379   2.49351
C    -0.07703  -0.36403   1.64417
N    -1.09130  -0.76648   0.94774
C    -1.72555  -1.06236  -0.02711
C    -3.05759  -1.25400  -0.58717
C    -3.45941  -2.66662  -0.85886
O    -3.69854  -0.25492  -0.88225
C     0.26059  -0.95386  -1.46049
C    -0.39917  -1.39674  -2.58231
N    -0.92812  -1.77678  -3.55283
C     1.13105  -0.54356  -0.69690
C     2.37199  -0.09780  -0.10699
O     3.16983  -0.83682   0.43621
O     2.52286   1.21757  -0.25953
C     3.70054   1.80020   0.32143
H     0.63808   3.60807   0.66729
H    -1.10745   3.95099   0.86330
H    -0.06758   3.73079   2.30026
H    -1.35014   1.65713   0.67775
H     0.50407  -1.09108   2.20188
H    -4.52676  -2.70406  -1.08695
H    -2.87736  -3.03120  -1.72626
H    -3.20700  -3.31007  -0.00029
H     3.61514   2.87425   0.14067
H     3.72760   1.58634   1.39491
H     4.59945   1.39623  -0.16744
29

C    -0.25594   3.38958   1.26911
N    -0.57626   1.97537   1.25408
C     0.23460   1.07366   1.83926
O     1.23929   1.38499   2.49448
C    -0.08502  -0.36308   1.66022
N    -1.08299  -0.76674   0.94348
C    -1.74155  -1.06422  -0.01430
C    -3.06367  -1.25400  -0.58286
C    -3.46216  -2.66724  -0.85923
O    -3.70318  -0.25418  -0.88513
C     0.28317  -0.95454  -1.48079
C    -0.40225  -1.39929  -2.58589
N    -0.93632  -1.77934  -3.55412
C     1.14380  -0.54424  -0.71348
C     2.37558  -0.09602  -0.10520
O     3.17081  -0.83567   0.44061
O     2.52469   1.21885  -0.25685
C     3.70179   1.80208   0.32326
H     0.63831   3.60788   0.66700
H    -1.10716   3.95094   0.86290
H    -0.06734   3.73098   2.29992
H    -1.35099   1.65726   0.67892
H     0.50207  -1.09130   2.20547
H    -4.52761  -2.70456  -1.08685
H    -2.87844  -3.03025  -1.72701
H    -3.20744  -3.31100  -0.00107
H     3.61545   2.87473   0.14095
H     3.72791   1.58704   1.39547
H     4.59975   1.39659  -0.16688
29

C    -0.25519   3.38932   1.26816
N    -0.57632   1.97537   1.25444
C     0.23268   1.07341   1.84280
O     1.23926   1.38619   2.49545
C    -0.09301  -0.36213   1.67627
N    -1.07468  -0.76699   0.93922
C    -1.75755  -1.06608  -0.00150
C    -3.06975  -1.25401  -0.57854
C    -3.46491  -2.66786  -0.85961
O    -3.70781  -0.25344  -0.88801
C     0.30575  -0.95522  -1.50109
C    -0.40532  -1.40184  -2.58946
N    -0.94452  -1.78189  -3.55541
C     1.15656  -0.54493  -0.73005
C     2.37917  -0.09424  -0.10342
O     3.17179  -0.83452   0.44502
O     2.52652   1.22013  -0.25417
C     3.70304   1.80396   0.32510
H     0.63855   3.60770   0.66671
H    -1.10687   3.95089   0.86249
H    -0.06711   3.73117   2.29957
H    -1.35183   1.65739   0.68009
H     0.50007  -1.09152   2.20906
H    -4.52845  -2.70506  -1.08675
H    -2.87952  -3.02930  -1.72776
H    -3.20789  -3.31193  -0.00185
H     3.61575   2.87522   0.14123
H     3.72822   1.58774   1.39602
H     4.60005   1.39696  -0.16633
29

C    -0.25444   3.38907   1.26722
N    -0.57639   1.97537   1.25480
C     0.23076   1.07317   1.84634
O     1.23923   1.38740   2.49643
C    -0.10099  -0.36117   1.69231
N    -1.06638  -0.76725   0.93496
C    -1.77355  -1.06793   0.01131
C    -3.07583  -1.25402  -0.57422
C    -3.46766  -2.66848  -0.85998
O    -3.71245  -0.25271  -0.89089
C     0.32833  -0.95590  -1.52139
C    -0.40839  -1.40440  -2.59303
N    -0.95271  -1.78444  -3.55671
C     1.16932  -0.54561  -0.74662
C     2.38276  -0.09246  -0.10163
O     3.17277  -0.83336   0.44942
O     2.52835   1.22141  -0.25148
C     3.70429   1.80585   0.32693
H     0.63879   3.60751   0.66641
H    -1.10658   3.95084   0.86208
H    -0.06688   3.73135   2.29922
H    -1.35268   1.65751   0.68126
H     0.49807  -1.09173   2.21265
H    -4.52929  -2.70557  -1.08665
H    -2.88060  -3.02834  -1.72850
H    -3.20834  -3.31286  -0.00263
H     3.61605   2.87571   0.14151
H     3.72853   1.58845   1.39658
H     4.60034   1.39733  -0.16578
29

C    -0.25368   3.38881   1.26627
N    -0.57645   1.97537   1.25515
C     0.22885   1.07293   1.84988
O     1.23920   1.38860   2.49740
C    -0.10898  -0.36022   1.70836
N    -1.05807  -0.76750   0.93070
C    -1.78955  -1.06979   0.02412
C    -3.08191  -1.25402  -0.56991
C    -3.47041  -2.66910  -0.86035
O    -3.71708  -0.25197  -0.89377
C     0.35091  -0.95658  -1.54169
C    -0.41146  -1.40695  -2.59660
N    -0.96091  -1.78699  -3.55800
C     1.18207  -0.54630  -0.76319
C     2.38635  -0.09068  -0.09984
O     3.17375  -0.83221   0.45382
O     2.53017   1.22269  -0.24880
C     3.70555   1.80773   0.32877
H     0.63902   3.60733   0.66612
H    -1.10629   3.95079   0.86167
H    -0.06665   3.73154   2.29888
H    -1.35353   1.65764   0.68243
H     0.49606  -1.09195   2.21624
H    -4.53013  -2.70607  -1.08655
H    -2.88169  -3.02739  -1.72925
H    -3.20878  -3.31379  -0.00341
H     3.61636   2.87619   0.14179
H     3.72884   1.58915   1.39714
H     4.60064   1.39770  -0.16522
29

C    -0.25293   3.38855   1.26533
N    -0.57651   1.97538   1.25551
C     0.22693   1.07269   1.85342
O     1.23917   1.38980   2.49837
C    -0.11697  -0.35927   1.72441
N    -1.04977  -0.76775   0.92644
C    -1.80555  -1.07165   0.03693
C    -3.08799  -1.25403  -0.56559
C    -3.47317  -2.66972  -0.86072
O    -3.72172  -0.25124  -0.89666
C     0.37349  -0.95726  -1.56199
C    -0.41453  -1.40950  -2.60017
N    -0.96911  -1.78954  -3.55929
C     1.19483  -0.54698  -0.77977
C     2.38995  -0.08890  -0.09805
O     3.17473  -0.83106   0.45822
O     2.53200   1.22397  -0.24612
C     3.70680   1.80962   0.33060
H     0.63926   3.60714   0.66583
H    -1.10600   3.95074   0.86127
H    -0.06642   3.73173   2.29853
H    -1.35437   1.65776   0.68360
H     0.49406  -1.09217   2.21982
H    -4.53097  -2.70657  -1.08644
H    -2.88277  -3.02644  -1.73000
H    -3.20923  -3.31471  -0.00420
H     3.61666   2.87668   0.14208
H     3.72915   1.58986   1.39770
H     4.60094   1.39807  -0.16467
29

C    -0.25218   3.38829   1.26438
N    -0.57657   1.97538   1.25586
C     0.22501   1.07244   1.85697
O     1.23915   1.39101   2.49934
C    -0.12496  -0.35832   1.74045
N    -1.04146  -0.76801   0.92218
C    -1.82155  -1.07351   0.04974
C    -3.09407  -1.25404  -0.56128
C    -3.47592  -2.67034  -0.86110
O    -3.72635  -0.25050  -0.89954
C     0.39607  -0.95794  -1.58229
C    -0.41760  -1.41205  -2.60375
N    -0.97731  -1.79209  -3.56058
C     1.20758  -0.54767  -0.79634
C     2.39354  -0.08711  -0.09626
O     3.17571  -0.82991   0.46262
O     2.53383   1.22525  -0.24344
C     3.70805   1.81150   0.33243
H     0.63949   3.60695   0.66554
H    -1.10571   3.95069   0.86086
H    -0.06619   3.73191   2.29818
H    -1.35522   1.65789   0.68477
H     0.49206  -1.09239   2.22341
H    -4.53181  -2.70708  -1.08634
H    -2.88385  -3.02549  -1.73075
H    -3.20967  -3.31564  -0.00498
H     3.61697   2.87716   0.14236
H     3.72946   1.59056   1.39825
H     4.60123   1.39843  -0.16411
29

C    -0.25143   3.38803   1.26344
N    -0.57664   1.97538   1.25622
C     0.22309   1.07220   1.86051
O     1.23912   1.39221   2.50032
C    -0.13294  -0.35737   1.75650
N    -1.03315  -0.76826   0.91792
C    -1.83755  -1.07536   0.06255
C    -3.10015  -1.25405  -0.55696
C    -3.47867  -2.67096  -0.86147
O    -3.73099  -0.24977  -0.90242
C     0.41865  -0.95862  -1.60259
C    -0.42067  -1.41461  -2.60732
N    -0.98551  -1.79465  -3.56188
C     1.22034  -0.54836  -0.81291
C     2.39713  -0.08533  -0.09447
O     3.17669  -0.82876   0.46703
O     2.53566   1.22654  -0.24075
C     3.70930   1.81339   0.33427
H     0.63973   3.60677   0.66525
H    -1.10542   3.95064   0.86045
H    -0.06596   3.73210   2.29784
H    -1.35607   1.65802   0.68594
H     0.49006  -1.09261   2.22700
H    -4.53266  -2.70758  -1.08624
H    -2.88493  -3.02454  -1.73150
H    -3.21012  -3.31657  -0.00576
H     3.61727   2.87765   0.14264
H     3.72977   1.59126   1.39881
H     4.60153   1.39880  -0.16356
29

C    -0.25218   3.38829   1.26438
N    -0.57657   1.97538   1.25586
C     0.22501   1.07244   1.85697
O     1.23915   1.39101   2.49934
C    -0.12496  -0.35832   1.74045
N    -1.04146  -0.76801   0.92218
C    -1.82155  -1.07351   0.04974
C    -3.09407  -1.25404  -0.56128
C    -3.47592  -2.67034  -0.86110
O    -3.72635  -0.25050  -0.89954
C     0.39607  -0.95794  -1.58229
C    -0.41760  -1.41205  -2.60375
N    -0.97731  -1.79209  -3.56058
C     1.20758  -0.54767  -0.79634
C     2.39354  -0.08711  -0.09626
O     3.17571  -0.82991   0.46262
O     2.53383   1.22525  -0.24344
C     3.70805   1.81150   0.33243
H     0.63949   3.60695   0.66554
H    -1.10571   3.95069   0.86086
H    -0.06619   3.73191   2.29818
H    -1.35522   1.65789   0.68477
H     0.49206  -1.09239   2.22341
H    -4.53181  -2.70708  -1.08634
H    -2.88385  -3.02549  -1.73075
H    -3.20967  -3.31564  -0.00498
H     3.61697   2.87716   0.14236
H     3.72946   1.59056   1.39825
H     4.60123   1.39843  -0.16411
29

C    -0.25293   3.38855   1.26533
N    -0.57651   1.97538   1.25551
C     0.22693   1.07269   1.85342
O     1.23917   1.38980   2.49837
C    -0.11697  -0.35927   1.72441
N    -1.04977  -0.76775   0.92644
C    -1.80555  -1.07165   0.03693
C    -3.08799  -1.25403  -0.56559
C    -3.47317  -2.66972  -0.86072
O    -3.72172  -0.25124  -0.89666
C     0.37349  -0.95726  -1.56199
C    -0.41453  -1.40950  -2.60017
N    -0.96911  -1.78954  -3.55929
C     1.19483  -0.54698  -0.77977
C     2.38995  -0.08890  -0.09805
O     3.17473  -0.83106   0.45822
O     2.53200   1.22397  -0.24612
C     3.70680   1.80962   0.33060
H     0.63926   3.60714   0.66583
H    -1.10600   3.95074   0.86127
H    -0.06642   3.73173   2.29853
H    -1.35437   1.65776   0.68360
H     0.49406  -1.09217   2.21982
H    -4.53097  -2.70657  -1.08644
H    -2.88277  -3.02644  -1.73000
H    -3.20923  -3.31471  -0.00420
H     3.61666   2.87668   0.14208
H     3.72915   1.58986   1.39770
H     4.60094   1.39807  -0.16467
29

C    -0.25368   3.38881   1.26627
N    -0.57645   1.97537   1.25515
C     0.22885   1.07293   1.84988
O     1.23920   1.38860   2.49740
C    -0.10898  -0.36022   1.70836
N    -1.05807  -0.76750   0.93070
C    -1.78955  -1.06979   0.02412
C    -3.08191  -1.25402  -0.56991
C    -3.47041  -2.66910  -0.86035
O    -3.71708  -0.25197  -0.89377
C     0.35091  -0.95658  -1.54169
C    -0.41146  -1.40695  -2.59660
N    -0.96091  -1.78699  -3.55800
C     1.18207  -0.54630  -0.76319
C     2.38635  -0.09068  -0.09984
O     3.17375  -0.83221   0.45382
O     2.53017   1.22269  -0.24880
C     3.70555   1.80773   0.32877
H     0.63902   3.60733   0.66612
H    -1.10629   3.95079   0.86167
H    -0.06665   3.73154   2.29888
H    -1.35353   1.65764   0.68243
H     0.49606  -1.09195   2.21624
H    -4.53013  -2.70607  -1.08655
H    -2.88169  -3.02739  -1.72925
H    -3.20878  -3.31379  -0.00341
H     3.61636   2.87619   0.14179
H     3.72884   1.58915   1.39714
H     4.60064   1.39770  -0.16522
29

C    -0.25444   3.38907   1.26722
N    -0.57639   1.97537   1.25480
C     0.23076   1.07317   1.84634
O     1.23923   1.38740   2.49643
C    -0.10099  -0.36117   1.69231
N    -1.06638  -0.76725   0.93496
C    -1.77355  -1.06793   0.01131
C    -3.07583  -1.25402  -0.57422
C    -3.46766  -2.66848  -0.85998
O    -3.71245  -0.25271  -0.89089
C     0.32833  -0.95590  -1.52139
C    -0.40839  -1.40440  -2.59303
N    -0.95271  -1.78444  -3.55671
C     1.16932  -0.54561  -0.74662
C     2.38276  -0.09246  -0.10163
O     3.17277  -0.83336   0.44942
O     2.52835   1.22141  -0.25148
C     3.70429   1.80585   0.32693
H     0.63879   3.60751   0.66641
H    -1.10658   3.95084   0.86208
H    -0.06688   3.73135   2.29922
H    -1.35268   1.65751   0.68126
H     0.49807  -1.09173   2.21265
H    -4.52929  -2.70557  -1.08665
H    -2.88060  -3.02834  -1.72850
H    -3.20834  -3.31286  -0.00263
H     3.61605   2.87571   0.14151
H     3.72853   1.58845   1.39658
H     4.60034   1.39733  -0.16578
29

C    -0.25519   3.38932   1.26816
N    -0.57632   1.97537   1.25444
C     0.23268   1.07341   1.84280
O     1.23926   1.38619   2.49545
C    -0.09301  -0.36213   1.67627
N    -1.07468  -0.76699   0.93922
C    -1.75755  -1.06608  -0.00150
C    -3.06975  -1.25401  -0.57854
C    -3.46491  -2.66786  -0.85961
O    -3.70781  -0.25344  -0.88801
C     0.30575  -0.95522  -1.50109
C    -0.40532  -1.40184  -2.58946
N    -0.94452  -1.78189  -3.55541
C     1.15656  -0.54493  -0.73005
C     2.37917  -0.09424  -0.10342
O     3.17179  -0.83452   0.44502
O     2.52652   1.22013  -0.25417
C     3.70304   1.80396   0.32510
H     0.63855   3.60770   0.66671
H    -1.10687   3.95089   0.86249
H    -0.06711   3.73117   2.29957
H    -1.35183   1.65739   0.68009
H     0.50007  -1.09152   2.20906
H    -4.52845  -2.70506  -1.08675
H    -2.87952  -3.02930  -1.72776
H    -3.20789  -3.31193  -0.00185
H     3.61575   2.87522   0.14123
H     3.72822   1.58774   1.39602
H     4.60005   1.39696  -0.16633
29

C    -0.25594   3.38958   1.26911
N    -0.57626   1.97537   1.25408
C     0.23460   1.07366   1.83926
O     1.23929   1.38499   2.49448
C    -0.08502  -0.36308   1.66022
N    -1.08299  -0.76674   0.94348
C    -1.74155  -1.06422  -0.01430
C    -3.06367  -1.25400  -0.58286
C    -3.46216  -2.66724  -0.85923
O    -3.70318  -0.25418  -0.88513
C     0.28317  -0.95454  -1.48079
C    -0.40225  -1.39929  -2.58589
N    -0.93632  -1.77934  -3.55412
C     1.14380  -0.54424  -0.71348
C     2.37558  -0.09602  -0.10520
O     3.17081  -0.83567   0.44061
O     2.52469   1.21885  -0.25685
C     3.70179   1.80208   0.32326
H     0.63831   3.60788   0.66700
H    -1.10716   3.95094   0.86290
H    -0.06734   3.73098   2.29992
H    -1.35099   1.65726   0.67892
H     0.50207  -1.09130   2.20547
H    -4.52761  -2.70456  -1.08685
H    -2.87844  -3.03025  -1.72701
H    -3.20744  -3.31100  -0.00107
H     3.61545   2.87473   0.14095
H     3.72791   1.58704   1.39547
H     4.59975   1.39659  -0.16688
29

C    -0.25669   3.38984   1.27005
N    -0.57620   1.97537   1.25373
C     0.23652   1.07390   1.83571
O     1.23932   1.38379   2.49351
C    -0.07703  -0.36403   1.64417
N    -1.09130  -0.76648   0.94774
C    -1.72555  -1.06236  -0.02711
C    -3.05759  -1.25400  -0.58717
C    -3.45941  -2.66662  -0.85886
O    -3.69854  -0.25492  -0.88225
C     0.26059  -0.95386  -1.46049
C    -0.39917  -1.39674  -2.58231
N    -0.92812  -1.77678  -3.55283
C     1.13105  -0.54356  -0.69690
C     2.37199  -0.09780  -0.10699
O     3.16983  -0.83682   0.43621
O     2.52286   1.21757  -0.25953
C     3.70054   1.80020   0.32143
H     0.63808   3.60807   0.66729
H    -1.10745   3.95099   0.86330
H    -0.06758   3.73079   2.30026
H    -1.35014   1.65713   0.67775
H     0.50407  -1.09108   2.20188
H    -4.52676  -2.70406  -1.08695
H    -2.87736  -3.03120  -1.72626
H    -3.20700  -3.31007  -0.00029
H     3.61514   2.87425   0.14067
H     3.72760   1.58634   1.39491
H     4.59945   1.39623  -0.16744
29

C    -0.25744   3.39010   1.27100
N    -0.57614   1.97537   1.25337
C     0.23844   1.07414   1.83217
O     1.23935   1.38258   2.49253
C    -0.06904  -0.36498   1.62813
N    -1.09960  -0.76623   0.95200
C    -1.70955  -1.06050  -0.03992
C    -3.05151  -1.25399  -0.59149
C    -3.45665  -2.66600  -0.85849
O    -3.69390  -0.25565  -0.87937
C     0.23801  -0.95317  -1.44019
C    -0.39610  -1.39419  -2.57874
N    -0.91992  -1.77423  -3.55153
C     1.11829  -0.54287  -0.68033
C     2.36840  -0.09959  -0.10878
O     3.16885  -0.83797   0.43181
O     2.52103   1.21628  -0.26221
C     3.69929   1.79831   0.31960
H     0.63784   3.60825   0.66758
H    -1.10774   3.95104   0.86371
H    -0.06781   3.73060   2.30061
H    -1.34929   1.65701   0.67658
H     0.50607  -1.09086   2.19830
H    -4.52592  -2.70356  -1.08705
H    -2.87628  -3.03215  -1.72551
H    -3.20655  -3.30914   0.00049
H     3.61484   2.87376   0.14039
H     3.72729   1.58563   1.39435
H     4.59916   1.39586  -0.16799
29

C    -0.25820   3.39036   1.27194
N    -0.57607   1.97537   1.25302
C     0.24036   1.07439   1.82863
O     1.23938   1.38138   2.49156
C    -0.06105  -0.36593   1.61208
N    -1.10791  -0.76597   0.95626
C    -1.69355  -1.05865  -0.05273
C    -3.04542  -1.25398  -0.59580
C    -3.45390  -2.66538  -0.85812
O    -3.68927  -0.25639  -0.87649
C     0.21543  -0.95249  -1.41989
C    -0.39303  -1.39163  -2.57517
N    -0.91172  -1.77168  -3.55024
C     1.10554  -0.54218  -0.66376
C     2.36481  -0.10137  -0.11057
O     3.16787  -0.83912   0.42741
O     2.51920   1.21500  -0.26490
C     3.69803   1.79643   0.31776
H     0.63761   3.60844   0.66787
H    -1.10803   3.95109   0.86412
H    -0.06804   3.73042   2.30096
H    -1.34845   1.65688   0.67541
H     0.50807  -1.09064   2.19471
H    -4.52508  -2.70305  -1.08716
H    -2.87520  -3.03310  -1.72476
H    -3.20611  -3.30821   0.00128
H     3.61454   2.87327   0.14011
H     3.72698   1.58493   1.39379
H     4.59886   1.39549  -0.16855
29

C    -0.25895   3.39062   1.27289
N    -0.57601   1.97537   1.25266
C     0.24227   1.07463   1.82509
O     1.23941   1.38018   2.49059
C    -0.05307  -0.36689   1.59603
N    -1.11621  -0.76572   0.96052
C    -1.67755  -1.05679  -0.06554
C    -3.03934  -1.25397  -0.60012
C    -3.45115  -2.66476  -0.85775
O    -3.68463  -0.25712  -0.87361
C     0.19285  -0.95181  -1.39959
C    -0.38996  -1.38908  -2.57160
N    -0.90353  -1.76913  -3.54895
C     1.09278  -0.54150  -0.64719
C     2.36122  -0.10315  -0.11236
O     3.16689  -0.84028   0.42301
O     2.51738   1.21372  -0.26758
C     3.69678   1.79454   0.31593
H     0.63737   3.60863   0.66817
H    -1.10832   3.95114   0.86453
H    -0.06827   3.73023   2.30130
H    -1.34760   1.65676   0.67424
H     0.51008  -1.09043   2.19112
H    -4.52424  -2.70255  -1.08726
H    -2.87412  -3.03405  -1.72401
H    -3.20566  -3.30728   0.00206
H     3.61423   2.87279   0.13983
H     3.72667   1.58423   1.39324
H     4.59856   1.39512  -0.16910
29

C    -0.25970   3.39088   1.27383
N    -0.57595   1.97537   1.25231
C     0.24419   1.07487   1.82154
O     1.23944   1.37898   2.48962
C    -0.04508  -0.36784   1.57999
N    -1.12452  -0.76546   0.96478
C    -1.66155  -1.05493  -0.07835
C    -3.03326  -1.25397  -0.60444
C    -3.44840  -2.66414  -0.85737
O    -3.68000  -0.25786  -0.87072
C     0.17027  -0.95113  -1.37929
C    -0.38689  -1.38653  -2.56803
N    -0.89533  -1.76658  -3.54766
C     1.08003  -0.54081  -0.63061
C     2.35763  -0.10493  -0.11415
O     3.16591  -0.84143   0.41860
O     2.51555   1.21244  -0.27026
C     3.69553   1.79266   0.31410
H     0.63713   3.60881   0.66846
H    -1.10861   3.95119   0.86493
H    -0.06850   3.73004   2.30165
H    -1.34675   1.65663   0.67307
H     0.51208  -1.09021   2.18753
H    -4.52340  -2.70205  -1.08736
H    -2.87304  -3.03501  -1.72326
H    -3.20521  -3.30635   0.00284
H     3.61393   2.87230   0.13955
H     3.72636   1.58352   1.39268
H     4.59827   1.39475  -0.16966
29

C    -0.26045   3.39113   1.27478
N    -0.57588   1.97537   1.25195
C     0.24611   1.07511   1.81800
O     1.23947   1.37777   2.48864
C    -0.03709  -0.36879   1.56394
N    -1.13283  -0.76521   0.96904
C    -1.64555  -1.05307  -0.09116
C    -3.02718  -1.25396  -0.60875
C    -3.44565  -2.66352  -0.85700
O    -3.67536  -0.25859  -0.86784
C     0.14769  -0.95045  -1.35899
C    -0.38382  -1.38398  -2.56445
N    -0.88713  -1.76403  -3.54636
C     1.06727  -0.54013  -0.61404
C     2.35404  -0.10671  -0.11593
O     3.16493  -0.84258   0.41420
O     2.51372   1.21116  -0.27294
C     3.69428   1.79077   0.31226
H     0.63690   3.60900   0.66875
H    -1.10890   3.95124   0.86534
H    -0.06873   3.72986   2.30199
H    -1.34591   1.65651   0.67190
H     0.51408  -1.08999   2.18395
H    -4.52255  -2.70154  -1.08746
H    -2.87195  -3.03596  -1.72251
H    -3.20477  -3.30543   0.00362
H     3.61363   2.87181   0.13927
H     3.72605   1.58282   1.39212
H     4.59797   1.39439  -0.17021
29

C    -0.26121   3.39139   1.27572
N    -0.57582   1.97537   1.25160
C     0.24803   1.07536   1.81446
O     1.23949   1.37657   2.48767
C    -0.02910  -0.36974   1.54789
N    -1.14113  -0.76496   0.97330
C    -1.62955  -1.05122  -0.10396
C    -3.02110  -1.25395  -0.61307
C    -3.44289  -2.66290  -0.85663
O    -3.67073  -0.25933  -0.86496
C     0.12511  -0.94977  -1.33869
C    -0.38075  -1.38143  -2.56088
N    -0.87893  -1.76148  -3.54507
C     1.05451  -0.53944  -0.59747
C     2.35044  -0.10849  -0.11772
O     3.16395  -0.84373   0.40980
O     2.51189   1.20988  -0.27563
C     3.69303   1.78889   0.31043
H     0.63666   3.60918   0.66904
H    -1.10919   3.95129   0.86575
H    -0.06896   3.72967   2.30234
H    -1.34506   1.65638   0.67073
H     0.51608  -1.08977   2.18036
H    -4.52171  -2.70104  -1.08756
H    -2.87087  -3.03691  -1.72176
H    -3.20432  -3.30450   0.00440
H     3.61332   2.87133   0.13899
H     3.72574   1.58211   1.39156
H     4.59767   1.39402  -0.17077
29

C    -0.26196   3.39165   1.27667
N    -0.57576   1.97536   1.25124
C     0.24995   1.07560   1.81092
O     1.23952   1.37537   2.48670
C    -0.02112  -0.37069   1.53184
N    -1.14944  -0.76470   0.97756
C    -1.61355  -1.04936  -0.11677
C    -3.01502  -1.25394  -0.61738
C    -3.44014  -2.66228  -0.85626
O    -3.66609  -0.26006  -0.86208
C     0.10253  -0.94909  -1.31839
C    -0.37768  -1.37887  -2.55731
N    -0.87073  -1.75892  -3.54378
C     1.04176  -0.53875  -0.58089
C     2.34685  -0.11027  -0.11951
O     3.16297  -0.84488   0.40540
O     2.51006   1.20860  -0.27831
C     3.69178   1.78700   0.30859
H     0.63643   3.60937   0.66933
H    -1.10948   3.95134   0.86616
H    -0.06919   3.72948   2.30269
H    -1.34421   1.65625   0.66956
H     0.51808  -1.08955   2.17677
H    -4.52087  -2.70054  -1.08767
H    -2.86979  -3.03786  -1.72101
H    -3.20388  -3.30357   0.00518
H     3.61302   2.87084   0.13870
H     3.72543   1.58141   1.39101
H     4.59738   1.39365  -0.17132
29

C    -0.26271   3.39191   1.27761
N    -0.57570   1.97536   1.25088
C     0.25186   1.07584   1.80738
O     1.23955   1.37416   2.48573
C    -0.01313  -0.37165   1.51580
N    -1.15774  -0.76445   0.98182
C    -1.59755  -1.04750  -0.12958
C    -3.00894  -1.25394  -0.62170
C    -3.43739  -2.66166  -0.85588
O    -3.66146  -0.26080  -0.85920
C     0.07995  -0.94841  -1.29809
C    -0.37461  -1.37632  -2.55374
N    -0.86254  -1.75637  -3.54248
C     1.02900  -0.53807  -0.56432
C     2.34326  -0.11206  -0.12130
O     3.16199  -0.84604   0.40100
O     2.50823   1.20731  -0.28099
C     3.69052   1.78512   0.30676
H     0.63619   3.60956   0.66963
H    -1.10977   3.95139   0.86657
H    -0.06942   3.72930   2.30303
H    -1.34337   1.65613   0.66839
H     0.52008  -1.08933   2.17318
H    -4.52003  -2.70003  -1.08777
H    -2.86871  -3.03881  -1.72026
H    -3.20343  -3.30264   0.00597
H     3.61272   2.87036   0.13842
H     3.72512   1.58071   1.39045
H     4.59708   1.39328  -0.17188
29

C    -0.26346   3.39217   1.27856
N    -0.57563   1.97536   1.25053
C     0.25378   1.07609   1.80383
O     1.23958   1.37296   2.48475
C    -0.00514  -0.37260   1.49975
N    -1.16605  -0.76419   0.98608
C    -1.58155  -1.04565  -0.14239
C    -3.00286  -1.25393  -0.62602
C    -3.43464  -2.66104  -0.85551
O    -3.65682  -0.26153  -0.85632
C     0.05737  -0.94773  -1.27779
C    -0.37154  -1.37377  -2.55017
N    -0.85434  -1.75382  -3.54119
C     1.01625  -0.53738  -0.54775
C     2.33967  -0.11384  -0.12309
O     3.16101  -0.84719   0.39659
O     2.50641   1.20603  -0.28367
C     3.68927   1.78324   0.30493
H     0.63596   3.60974   0.66992
H    -1.11006   3.95144   0.86697
H    -0.06965   3.72911   2.30338
H    -1.34252   1.65600   0.66722
H     0.52209  -1.08912   2.16959
H    -4.51919  -2.69953  -1.08787
H    -2.86763  -3.03976  -1.71951
H    -3.20299  -3.30171   0.00675
H     3.61241   2.86987   0.13814
H     3.72481   1.58000   1.38989
H     4.59678   1.39291  -0.17243
29

C    -0.26421   3.39243   1.27950
N    -0.57557   1.97536   1.25017
C     0.25570   1.07633   1.80029
O     1.23961   1.37176   2.48378
C     0.00285  -0.37355   1.48370
N    -1.17436  -0.76394   0.99034
C    -1.56556  -1.04379  -0.15520
C    -2.99678  -1.25392  -0.63033
C    -3.43189  -2.66041  -0.85514
O    -3.65219  -0.26227  -0.85344
C     0.03479  -0.94704  -1.25749
C    -0.36847  -1.37122  -2.54659
N    -0.84614  -1.75127  -3.53990
C     1.00349  -0.53670  -0.53118
C     2.33608  -0.11562  -0.12488
O     3.16003  -0.84834   0.39219
O     2.50458   1.20475  -0.28636
C     3.68802   1.78135   0.30309
H     0.63572   3.60993   0.67021
H    -1.11035   3.95149   0.86738
H    -0.06988   3.72892   2.30373
H    -1.34167   1.65588   0.66605
H     0.52409  -1.08890   2.16601
H    -4.51834  -2.69903  -1.08797
H    -2.86655  -3.04071  -1.71876
H    -3.20254  -3.30078   0.00753
H     3.61211   2.86938   0.13786
H     3.72450   1.57930   1.38933
H     4.59649   1.39255  -0.17299
29

C    -0.26497   3.39269   1.28045
N    -0.57551   1.97536   1.24982
C     0.25762   1.07657   1.79675
O     1.23964   1.37055   2.48281
C     0.01084  -0.37450   1.46766
N    -1.18266  -0.76368   0.99460
C    -1.54956  -1.04193  -0.16801
C    -2.99070  -1.25392  -0.63465
C    -3.42913  -2.65979  -0.85477
O    -3.64755  -0.26301  -0.85056
C     0.01221  -0.94636  -1.23719
C    -0.36540  -1.36866  -2.54302
N    -0.83794  -1.74872  -3.53861
C     0.99073  -0.53601  -0.51460
C     2.33249  -0.11740  -0.12666
O     3.15905  -0.84949   0.38779
O     2.50275   1.20347  -0.28904
C     3.68677   1.77947   0.30126
H     0.63548   3.61011   0.67050
H    -1.11064   3.95154   0.86779
H    -0.07012   3.72873   2.30407
H    -1.34082   1.65575   0.66488
H     0.52609  -1.08868   2.16242
H    -4.51750  -2.69852  -1.08807
H    -2.86547  -3.04167  -1.71801
H    -3.20209  -3.29985   0.00831
H     3.61180   2.86890   0.13758
H     3.72419   1.57860   1.38878
H     4.59619   1.39218  -0.17354
29

C    -0.26572   3.39294   1.28139
N    -0.57545   1.97536   1.24946
C     0.25954   1.07681   1.79321
O     1.23967   1.36935   2.48183
C     0.01882  -0.37545   1.45161
N    -1.19097  -0.76343   0.99886
C    -1.53356  -1.04007  -0.18082
C    -2.98462  -1.25391  -0.63896
C    -3.42638  -2.65917  -0.85439
O    -3.64292  -0.26374  -0.84768
C    -0.01037  -0.94568  -1.21689
C    -0.36233  -1.36611  -2.53945
N    -0.82974  -1.74617  -3.53731
C     0.97798  -0.53532  -0.49803
C     2.32890  -0.11918  -0.12845
O     3.15807  -0.85064   0.38339
O     2.50092   1.20219  -0.29172
C     3.68552   1.77758   0.29942
H     0.63525   3.61030   0.67079
H    -1.11093   3.95159   0.86820
H    -0.07035   3.72855   2.30442
H    -1.33998   1.65563   0.66371
H     0.52809  -1.08846   2.15883
H    -4.51666  -2.69802  -1.08817
H    -2.86439  -3.04262  -1.71726
H    -3.20165  -3.29892   0.00909
H     3.61150   2.86841   0.13730
H     3.72388   1.57789   1.38822
H     4.59589   1.39181  -0.17410
