10

O -6.310664709 -0.867842512 0.312208834
C -4.413996978 0.199365426 0.500747735
C 1.536996914 -1.588844706 -0.705381000
C 1.148611141 1.033443143 0.255806027
C 3.473274627 0.461040054 -0.163465996
C -2.903246924 2.204858724 1.057500112
N -0.600733220 2.785334874 1.039580690
H 1.091756803 -2.043780472 -2.663425089
H 1.395067937 -3.190579479 0.580299914
H 5.454125008 0.915666926 -0.187751434

