10

O -4.769056278 -1.676261811 -0.319838036
C -3.125691046 -0.272070314 0.032395764
C 0.241080374 -1.258455270 -0.369877644
C 1.264178835 1.263905505 0.326920352
C 3.511198709 0.582526994 0.050333101
C -2.819552976 2.507052255 0.826459229
N -0.581119564 3.220245439 0.956337290
H 0.274013992 -1.839105048 -2.335952011
H 0.391852532 -2.801122080 0.971801429
H 5.497618038 0.254470180 -0.117943647

