13

O 2.225756676 3.764012128 1.520485110
C 1.440531800 1.969851835 0.369663330
C 2.714338052 -0.359772938 -0.471983364
O 1.339437556 -1.321509554 -2.489875986
C -1.016231272 -0.729153924 -2.045525162
C -1.593528222 -1.048135990 1.576044665
C -1.310516771 1.271158236 -0.168504441
H 0.969165375 -1.701070911 1.204159073
H 4.731947481 -0.599590333 -0.656196266
H -2.443853483 -1.603400000 -3.213619549
H -1.104570790 -0.663781060 3.544712303
H -3.418048175 -1.983666111 1.467066710
H -2.729835375 2.742025734 -0.279859690

