11

C -0.680845684 0.027538431 -2.415458798
H -2.057233754 0.272136322 -3.904886354
C 0.180789172 -2.166224653 -1.496662958
H -0.376639689 -4.033870480 -2.113635276
C 2.023936723 -1.652594333 0.506208156
H 3.016162690 -3.088913801 1.570056879
C 2.266776867 0.849552665 0.788395232
H 3.482765758 1.816500862 2.114449880
C 0.566206790 2.167820753 -1.049213625
H -0.811319178 3.383424991 -0.093321914
H 1.628288052 3.393276946 -2.337608583

