14

O -0.337398732 -2.971566401 2.229322740
C -0.166574237 -2.193512411 -0.292732882
C -1.905929014 0.948172105 -0.699483240
C -0.358134357 3.117679533 -0.409350508
C 2.025293130 -0.719280256 -0.724621322
O 3.690367952 -0.370398282 1.016283239
H -1.818222686 -2.209497718 2.978540378
H -0.639726604 -3.627370776 -1.686231042
H -2.706260267 0.606468350 -2.563745210
H -3.260391064 0.475632633 0.803759291
H 0.062041372 4.276637737 -2.038938767
H -0.125290505 3.968446669 1.433566836
H 2.561216700 -0.116085876 -2.599039417
H 3.011545636 -1.164814239 2.539150841

