16

C -1.983405404 2.466386917 -0.584200781
C -0.429257960 1.250604932 1.186860596
C 0.000233986 -1.406382162 0.781540817
C -1.917844210 -3.435977802 1.127568682
C 2.201541102 -1.455846348 -0.551252745
C 3.048489781 1.103774649 -0.837779294
N 1.940615882 2.422480529 1.218909180
H -3.709337854 1.557011910 -1.221034139
H 0.505365470 1.989944254 -2.313225976
H -2.050618427 4.518114935 -0.654535254
H -1.376148868 -5.158675059 0.135952945
H -3.760517326 -2.828489907 0.411094555
H -2.175052886 -3.893888866 3.122547676
H 3.017530833 -3.063708747 -1.510917181
H 4.944059336 1.590593043 -1.451013751
H 1.831003717 4.308232295 0.949871460

