12

C -0.814028384 3.008212310 2.330005950
C -0.237980883 0.601305675 2.003784494
C -1.055526199 -0.957620736 -0.249320808
O -2.316019066 0.449126106 -2.125915547
C 1.121559919 -2.342769557 -1.292237186
C 2.919913307 -3.409399144 -2.155441025
H -0.180366384 4.025674020 3.987740603
H -1.085965227 1.464382468 -2.993839903
H -1.951179886 4.028117833 0.967135752
H 0.881776861 -0.411216064 3.393502258
H -2.438934979 -2.353201847 0.400298134
H 4.511830859 -4.365470059 -2.929081087

