12

N -5.987217882 -0.675009680 -1.402735558
C -4.053183538 0.224829693 -1.022925135
C -1.597389386 1.355789110 -0.474080298
C 0.223928407 -0.631817684 0.513333878
C 2.048280042 -1.820809589 -1.232211699
N 2.867812689 0.198927444 0.763208093
H -0.835922732 2.147300482 -2.222134714
H -1.893256946 2.879635382 0.891839199
H -0.446466486 -1.536048328 2.241064894
H 3.379350344 1.895132121 0.062455770
H 2.695229595 -3.620876165 -0.448518653
H 3.733535551 -0.246709075 2.404594404

