12

N -5.815627896 -0.856967384 -1.701485819
C -4.001002020 0.174436782 -1.119473492
C -1.689730211 1.454977093 -0.323824168
C 0.265418270 -0.422410122 0.615889655
C 2.031159407 -1.600501179 -1.191670781
N 2.727900428 0.717793325 1.112843784
H -0.911751943 2.489495471 -1.928795929
H -2.163436116 2.812159139 1.157405303
H -0.391942143 -1.564056564 2.192618949
H 3.602905606 0.479167857 -0.868625066
H 2.806729956 -3.341891985 -0.388326095
H 3.674076358 -0.171860632 2.517333858

