15

C -1.932046503 1.489443675 -2.323641900
C -1.633962937 -0.144627165 -0.231133952
O 0.489019585 -2.349359429 -2.064024163
C 0.051589221 0.412767019 1.986979103
O -0.016491602 -1.508118289 3.777091452
C 2.756902735 0.928613553 1.171919042
O 4.490505602 -0.064720965 2.239530739
H -0.470883581 -0.548047580 -3.230275954
H -3.754629204 1.500816406 -3.255354623
H -0.928496447 3.275275020 -2.335693043
H -3.110880337 -1.491140442 0.222617429
H -0.051312716 -4.059496357 -2.386847532
H -0.664619399 2.189294448 2.812564070
H 1.722151259 -1.990056371 4.078277721
H 3.044457805 2.268356734 -0.396310188

