10

O -3.580347813 0.556734954 0.600051558
C -1.121894741 0.008740701 0.397151286
C 1.113725379 1.289489808 1.048973101
C 3.248054913 -0.459527461 0.432597371
N 2.154469290 -2.471779515 -0.671935795
N -0.391881105 -2.167990507 -0.560332803
H -3.784059477 2.191780024 1.356979468
H 1.261616707 3.000629822 2.151880611
H 2.633714002 1.614008015 -0.783448099
H -1.547186468 -3.535535207 -1.216573214

