16

C 3.885065962 0.811565183 -0.117927376
O 2.083801489 -0.869351156 -1.155167262
C -0.312706720 -0.654897363 -0.077111541
C -2.469095802 -0.838909237 -2.018726823
C -0.637430719 -1.890195778 2.466848672
C -1.804453556 1.566628254 -0.792368570
N -2.072546299 3.903580667 -0.519298856
H 3.218819036 2.766812289 -0.213600052
H 4.325956641 0.343778977 1.849825408
H 5.596569276 0.613589802 -1.242488710
H -1.906767448 -1.089982104 -3.973117637
H -3.498003546 4.558858337 -1.640769107
H -4.176677348 -1.822586725 -1.456279643
H -2.577900884 -1.697276926 3.133273062
H 0.592340625 -1.019929825 3.874634220
H -0.175055309 -3.896081761 2.331190015

