12

O 3.762020754 -0.719669464 1.415510276
C 1.428974178 -0.279479004 0.623748081
C -1.053570673 -0.868678187 1.837319597
C -2.285130510 0.598038716 -0.407341842
C 0.384811016 0.838481384 -1.509285025
O 1.384139594 1.921666748 -3.571237897
H 4.920567395 0.203180953 0.350826464
H 1.060356169 -0.693694933 -2.969591694
H -1.544014714 -2.864640783 1.994027914
H -1.300705295 0.035274535 3.676228926
H -3.090305698 2.405654956 0.163452126
H -3.648698470 -0.441006293 -1.546403895

