14

C 5.802990618 -2.807001245 -0.067782038
C 3.895853766 -1.795844928 0.603335279
C 1.535554165 -0.623354376 1.415942835
C 0.619565853 1.571115125 -0.047318289
C -2.116918996 1.939329980 0.322677142
C -3.265672452 0.642978917 -2.038049197
H 7.505675146 -3.682235685 -0.683338006
H 0.103309986 -2.063591775 1.867114512
H 1.863273833 0.385021021 3.225219047
H -2.536756293 1.481598213 -3.771003775
H -2.623786061 3.937412547 0.261645772
H -2.926329003 1.061876605 2.026499985
H -2.852447420 -1.376965967 -2.072318511
H -5.310872071 0.876890766 -1.992488033

