14

C 4.993018833 -2.742705676 -0.964969125
C 3.380721473 -1.647085668 0.183109586
C 1.358743262 -0.349514031 1.538996168
C 0.154747745 1.828295248 0.101658611
C -2.553621400 2.043219847 0.703949305
C -2.542847636 0.386099147 -1.660302356
H 6.443830251 -3.699922672 -1.976176446
H 0.018031804 -1.759009611 2.278707482
H 2.165647379 0.595105824 3.198674952
H -0.438165827 0.538193660 -2.344913262
H -3.424437150 3.882579271 0.449468052
H -3.275831110 1.059247372 2.365267748
H -2.989589059 -1.586168136 -1.323870162
H -3.480833116 1.231803348 -3.275431130

