13

O 0.422135885 1.348862716 -0.860754300
C -1.126361109 2.930242097 0.654714589
H -2.221382735 4.330918117 -0.374638318
H -0.262132282 3.601188129 2.393618912
C -1.711200636 0.247404872 0.359356235
C -1.074605384 -1.576476411 2.449018123
H 0.486102717 -0.865402025 3.589124609
H -0.519304827 -3.401265838 1.659627497
H -2.706039698 -1.880445453 3.675829627
C -3.802423061 -0.555654730 -1.396095608
H -3.336363157 -2.358486485 -2.286710869
H -4.088362944 0.845000882 -2.878637456
H -5.572086815 -0.791546728 -0.360722431

