19

C 3.333115304 -0.609503212 -2.246704725
C 1.981137374 0.729710203 -0.130301397
O 1.271415466 3.277769987 -0.759493175
C -1.140708023 2.957913356 0.428798832
C -0.782713487 0.075973170 0.592467993
C -1.141059569 -1.129302033 3.169001509
C -2.250883401 -1.331325415 -1.437298837
H 5.120470107 0.340776258 -2.642287330
H 3.751366062 -2.560257759 -1.714103256
H 2.214758602 -0.617563197 -3.976446409
H 3.185342028 0.741186737 1.562421081
H -2.686257705 3.643149970 -0.759594974
H -1.214697112 3.909123234 2.268133936
H -0.111524587 -0.100399864 4.631822043
H -0.462529158 -3.080951705 3.167497835
H -3.136674097 -1.164611433 3.700859503
H -1.599311030 -3.282309979 -1.622876084
H -2.072659248 -0.416808047 -3.276897047
H -4.258587546 -1.382570252 -0.954999515

