12

C 3.441730657 1.630488582 -1.882298027
C 1.076843727 -0.749580881 0.962468582
O 1.071950961 1.052962351 -0.699059034
C -1.588450528 -1.001780309 1.959159576
C -3.586867973 -1.304268657 -0.066433662
O -5.144241766 -2.947690996 -0.047459659
H 3.201488433 1.389291347 -3.911643184
H 4.880872280 0.358765846 -1.145203984
H 3.888909174 3.593964764 -1.458373252
H -1.724632772 -2.558068965 3.294639195
H -2.004756135 0.771363338 2.958048812
H -3.520104516 0.100692394 -1.613982599

