12

C 2.825760745 0.634498488 -1.551972710
C 1.316287012 0.488410356 1.468454412
O 1.119332461 2.647160896 0.348493522
C -1.214334984 -0.932798956 1.727680125
C -3.039628345 -0.395396921 -0.385806051
O -2.862227905 -1.381499042 -2.427648363
H 2.233751673 -1.329001184 -1.849545426
H 4.803485690 0.883394353 -1.126514044
H 2.136163268 1.698126736 -3.180265335
H -0.823827729 -2.954342379 1.835111547
H -1.966003691 -0.320881392 3.554150124
H -4.527926733 1.030793841 -0.035284002

