13

C 2.162623043 -0.922448681 -0.400243237
C 1.889887167 1.095164282 1.596142204
C -0.262844426 2.339461818 1.285107079
C -0.344650518 -0.696622535 -1.787561993
C -2.725314867 -1.065754417 -0.382304559
N -1.748065470 1.499566655 -0.807771255
H 2.483575488 -2.801810602 0.397760534
H 3.740232079 -0.528249430 -1.675832976
H 3.271356408 1.462048146 3.055554938
H -0.985855908 3.887010566 2.408051998
H -0.366784446 -0.917968839 -3.822324466
H -2.616546880 -1.792230637 1.532297959
H -4.439016914 -1.521088009 -1.405794495

