12

C 3.902770919 0.837441448 -0.250109070
O 1.224634294 0.777892134 -0.332262948
C 0.047167980 0.741351747 1.903056045
C -2.465964431 0.650883226 2.150246584
C -4.213275580 0.574139634 0.013176663
O -6.483557151 0.493554247 0.242958384
H -3.335184894 0.592316078 -1.883221234
H -3.269990420 0.632972326 4.029692296
H 1.270239206 0.792604559 3.557488042
H 4.548557327 0.890906733 -2.199665908
H 4.648876046 -0.855216288 0.669089792
H 4.572800397 2.524064174 0.736565714

