16

C 3.801961495 -0.426653275 0.325097730
C 1.793476874 0.973179380 -1.182089567
C -0.578718761 -0.554551696 -1.691200758
C -2.172280790 -1.601525845 1.260833321
C -3.176166066 1.259789587 -0.415641293
O -2.417893692 1.057580728 -2.851491445
H 3.999032831 -2.363623271 -0.359608456
H 3.346834394 -0.499855350 2.337418930
H 5.634449384 0.501060447 0.150739371
H 2.482479976 1.282113904 -3.111912486
H 1.464148255 2.870249698 -0.406206533
H -0.347623473 -2.311931778 1.886617960
H -2.991176826 -0.755458610 2.981671900
H -3.342097984 -3.174525916 0.661276682
H -2.398231828 2.837513727 0.649822220
H -5.185744763 0.932461357 -0.150921049

