13

N -3.182386061 -0.834830508 -0.504051222
C -0.497440885 -0.531669796 -0.746466423
C 0.618783072 2.019339907 -0.063342410
C 2.192268197 1.752683129 1.873515733
C 2.338428232 -0.965574404 2.736577200
O 0.067020101 -1.285024102 -3.214395962
N 0.786994869 -2.094182888 1.169790889
H -4.078029166 0.083641622 -1.919365931
H -3.797048699 -0.169749695 1.177915218
H 0.109302118 3.713255767 -1.090953386
H 3.255415264 3.239002067 2.786601860
H 1.817199778 -0.925630450 -3.538644355
H 0.395435339 -3.958826848 1.232999658

