10

C -2.499506050 -1.468011479 -1.039352222
C -2.712077411 0.892193731 0.502075703
O -4.340182689 2.668285294 -0.419424676
H -5.091335217 2.074113902 -1.956211773
C -1.463538554 1.338628640 2.628920920
H -1.714199405 3.094784235 3.643522227
H -0.170505717 -0.053102136 3.373796307
H -1.156722866 -2.779562800 -0.201094298
H -1.866293747 -1.028613815 -2.958006954
H -4.332536384 -2.414454976 -1.175783116

