15

C -3.560080973 -0.601710681 -0.634064304
C -1.105871054 0.178558048 0.582962217
C 0.096763181 2.455909558 -0.232407514
N 2.459474337 3.015592786 0.051020224
C 1.743870826 -1.930827989 1.011626614
N 3.780426308 -1.966351949 -0.386576209
C -0.054417045 -1.461012500 2.553042350
H -3.296768028 -2.128958006 -2.007067912
H -4.915366868 -1.279539096 0.772902615
H -4.429230646 0.978380643 -1.639093015
H -1.157041965 3.711250975 -1.309592204
H 2.815085361 4.763504981 -0.647062464
H 4.122221810 -3.428485132 -1.550140167
H 4.299311276 -0.159346715 -0.906933103
H -0.782160818 -2.151914135 4.336972290

