14

C -2.336422950 0.782431256 -0.196625399
C -0.027689212 2.069555411 -1.355249367
C 2.363317759 1.335183178 -0.004007580
C 2.583855600 -0.940421582 1.049419190
C 0.479507762 -2.738977341 0.956941530
C -1.836378079 -1.962253001 0.349427500
H -2.838865202 1.720094103 1.586631591
H -3.968748742 0.993960679 -1.440175303
H 0.154409087 1.516074716 -3.348477889
H -0.274335831 4.117690095 -1.345305137
H 3.939973580 2.644230139 0.003370761
H 4.330894080 -1.510670818 1.954136003
H 0.835693716 -4.700945182 1.426184205
H -3.410342193 -3.274617263 0.342659446

