14

C -2.510990803 0.720216805 -0.137765570
C -0.299853880 1.592463059 -1.624348181
C 2.142761492 1.333865226 -0.402705550
C 2.349831747 -0.617520886 1.423120997
C 0.491852020 -2.487764917 1.227476329
C -1.756115420 -1.998849909 0.021950945
H -2.604842672 1.613690504 1.737414463
H -4.284333571 1.037748128 -1.128522029
H -0.449447397 2.314594345 -3.535405988
H 1.093226348 3.304085520 0.102633539
H 3.817491794 1.969563916 -1.405255942
H 4.078844280 -0.888418266 2.473867738
H 0.913984748 -4.383213510 1.887969624
H -2.986936431 -3.484376145 -0.658388424

