14

C 4.155092311 -1.083734764 1.046177100
N 2.117457303 3.112959130 1.223359900
C 0.471944719 2.002496722 0.111669170
O 0.916118268 -0.578374774 -0.835441551
C -1.723451428 -0.846807517 -1.614531791
C -3.414952879 -0.491309385 0.588104464
C -2.270919902 1.771874942 -0.750749582
H 5.532982014 0.149501260 0.195414991
H 3.779445805 -0.784571711 3.025877564
H 4.029899240 -2.989458044 0.330433901
H -2.108371802 -1.812092301 -3.368073253
H -2.756811556 -0.992565116 2.460720725
H -5.411238827 -0.797296976 0.249411421
H -3.367055541 3.248301315 -1.628420749

