14

C -3.283414562 0.913448709 -1.573718280
C -0.160654122 -1.450666552 1.239551849
N 2.025487867 -2.650420863 1.625299035
C 1.932104594 0.100693943 2.420040855
C 2.789617636 1.727115853 0.559084658
C -1.568953071 -1.320581944 -1.154615708
O -1.498029571 -3.105346463 -2.596860998
H -2.956762494 1.673290444 -3.460067615
H -2.994112666 2.382045530 -0.161563930
H -5.239781368 0.263089901 -1.492574536
H 3.067340820 -3.127287109 0.057116103
H 1.993181033 0.476772383 4.424631828
H 2.959509230 1.056035953 -1.363855350
H 3.249466992 3.682645737 0.946097658

