14

C -3.223421634 0.802168312 -0.483501622
C -0.209604793 -1.690048478 0.664066220
N 1.301833612 -3.069301921 2.203367447
C 1.404554306 -0.152020776 2.174834717
C 2.120300113 1.173681892 -0.289820738
C 0.042704201 -0.526611321 -1.784615551
O -0.019025574 -1.229394816 -3.973465593
H -3.658206514 1.495100854 -2.366134849
H -3.007253274 2.302377663 0.900305418
H -4.633215054 -0.576759191 0.099907949
H 2.626161277 -4.125918738 1.292655647
H 0.997411867 0.690495551 3.984412852
H 3.929409992 0.632975935 -1.111069256
H 1.904827965 3.218816183 -0.250288480

