15

C 1.422501677 2.044314017 0.137617831
C 2.635490912 -0.519818379 -0.116305575
C 0.848946328 -2.583644102 0.485198540
O -1.312066725 -2.140484202 1.943538098
C -2.765135988 -0.138281730 0.937307484
C -1.187264884 1.362132694 -0.886740907
C 1.056521971 -1.799750576 -2.244747781
H 1.364162525 2.813499314 2.058247138
H 2.348213839 3.420802526 -1.086471315
H 4.662656401 -0.783795431 -0.010649741
H 1.615850801 -4.448753199 0.846605826
H -3.357727834 1.061955350 2.514813115
H -4.459960806 -0.886001041 0.011548097
H -2.237991651 2.844303834 -1.860591329
H -0.737984123 -0.030226358 -2.685291620

