11

O 1.770820399 3.275624751 0.670813109
C -0.084720088 2.844675676 -0.552092275
C 1.741930550 -1.905698090 1.719545931
O -0.489561974 -1.819478768 0.198870828
C -1.351558732 0.299798757 -0.869894773
N -3.312532048 0.350021517 -2.233489794
H 1.546882808 -0.746369688 3.407560648
H -1.113468339 4.314108285 -1.614675788
H 3.397775854 -1.300332111 0.659523772
H 1.935728994 -3.882668580 2.247531763
H -4.097964661 -1.401039169 -2.382689058

