15

O -3.632749238 2.015101384 0.941005961
C -2.295773769 -0.278413879 1.007188233
C -1.383599435 -1.238088067 -1.607400286
C 1.238567755 -0.223525215 -0.963019513
C 3.691511047 -0.614245594 -2.179372158
O 1.841660733 2.118972712 -2.249213752
C 0.508841489 -0.039319947 1.818402532
H -2.677507233 3.232092491 -0.009801310
H -3.456353301 -1.577113324 2.101238559
H -2.311655386 -0.444516950 -3.265941833
H -1.383721795 -3.296050650 -1.731722495
H 3.898685804 2.007260683 -1.917252934
H 3.445547640 -1.421610766 -4.070193946
H 1.043481935 1.686266399 2.807709647
H 1.178723813 -1.677248248 2.875953024

