14

C -2.075100453 0.387687330 -1.519836103
C 0.324108798 0.752571203 0.056892114
O 0.687075638 3.355505421 0.594919194
C 0.242771074 -0.770451394 2.515582554
C 2.610045523 -0.010652934 -1.484151838
O 2.380895405 -2.416489871 -2.014569842
H -3.706829129 1.101718400 -0.474087328
H -2.397503339 -1.601666668 -1.946626704
H -1.938092058 1.439843391 -3.287767338
H -0.733326496 3.933674726 1.563475605
H -1.313194589 -0.099720243 3.696557561
H -0.041927845 -2.776634140 2.144814831
H 1.999052356 -0.525249490 3.567488454
H 3.826648896 -2.916774718 -2.997261328

