15

C -2.751112992 -0.904744290 -1.345175010
O -1.597980587 -3.226313199 -0.541728298
C -0.076560629 -1.899345076 1.289416411
C 2.592450868 -1.442212201 0.450014825
C 2.933988894 0.926418353 -0.298948475
C 0.588298709 2.527040909 -0.066581892
C -1.430619090 0.620326411 0.741661738
H -2.194546526 -0.392107872 -3.272328994
H -4.810685225 -1.009533780 -1.235285508
H -0.240962002 -2.774212286 3.153310471
H 4.019968767 -2.907609584 0.440516230
H 4.702414179 1.678413605 -1.008222121
H 0.848757185 4.022257433 1.337020407
H 0.115188502 3.467852682 -1.846720437
H -2.698600054 1.313768896 2.203050634

