14

C 3.606838051 0.433456705 -0.499844031
C 1.957924621 -1.209980035 -1.980471245
C -0.741181710 -0.785870615 -1.870076280
C -2.429972689 1.019438326 -0.262538328
C -2.242294463 -1.739117598 0.365021482
N -1.005413081 -1.110973428 2.818179580
C -1.322507348 1.240424430 2.326713971
H 2.884935988 2.300829391 0.043867479
H 5.496879079 0.565547975 -1.313261372
H 3.836868365 -0.688625648 1.245909095
H -1.723903092 -1.306783315 -3.602443965
H -3.977917353 2.035290405 -1.121992213
H -3.631001695 -3.227187764 0.218144088
H -0.740975635 2.823653191 3.501045683

