14

C -2.145901725 -2.096419360 1.105110817
C -1.003840961 -0.048361077 -0.537924733
C -2.001837887 2.601133536 -0.063604761
O -3.773099217 3.024483513 1.270588692
C 1.958880709 0.134229042 0.106599092
O 2.799756243 0.520594584 2.192603396
N 2.696277316 -0.237540653 -2.166580394
H -1.755592344 -1.720054476 3.090025054
H -4.187192143 -2.130096132 0.832517125
H -1.378594798 -3.939844152 0.601182786
H -1.327669116 -0.425698226 -2.546572287
H -0.994714000 4.124686258 -1.085647715
H 5.524201382 -0.160701799 -2.195671348
H 5.828898460 0.113467112 -0.753845388

