15

C -3.527760968 -1.836244929 0.420480560
C -1.388811489 -0.106591079 -0.278740046
C -1.229419345 2.537816278 0.629946251
N 0.380512210 0.567762432 1.695127533
C 2.993600853 0.645657925 1.119640619
C 4.086629801 -0.677736215 -0.665410665
N 5.142847261 -2.131105794 -2.125891397
H -4.221761017 -1.390401693 2.308815544
H -2.908343988 -3.803764558 0.410815669
H -5.086117192 -1.640973028 -0.918061814
H -0.569286722 -0.436260491 -2.136838127
H -0.341626163 3.916011002 -0.602220265
H -2.663004285 3.271241683 1.897075629
H 5.420403073 -1.416992899 -3.891254078
H 4.157214643 1.826728003 2.318145613

