16

C 4.948670305 0.706725426 -1.229347857
C 2.448170373 0.152366255 -0.198239829
C 0.727968046 -0.118647154 1.358137662
C -1.664976669 -0.741755468 2.056005904
C -1.231829048 -1.532883698 -2.809852048
C -3.664926815 1.187933790 2.603104332
H 6.236811642 1.286809590 0.277359884
H 5.742239060 -0.954977443 -2.154582863
H 4.850118556 2.224133628 -2.620178083
H -1.978897633 -2.634718184 2.785594636
H -1.479177682 0.397251820 -2.282052921
H -1.991178264 -2.121923331 -4.629684611
H -0.338581493 -2.941286960 -1.677564456
H -3.355525981 2.912838173 1.518988617
H -5.535441757 0.448245796 2.157050184
H -3.662754537 1.696658835 4.609238417

