11

O -2.696558299 1.976097569 -0.799176875
C -2.199761244 -0.209967753 0.651356300
C 0.549657495 -0.851508022 0.520637349
C 2.228662508 0.482744428 -0.771759576
O 4.739465416 -0.008036646 -0.955539694
H -4.459685284 2.361701476 -0.679864273
H -3.315865279 -1.817934938 -0.045376576
H -2.741337231 0.092455625 2.634417320
H 5.138821635 -1.492864722 0.009036840
H 1.133455934 -2.519185412 1.569786667
H 1.703788393 2.148236312 -1.834679971

