8

O -3.837742496 1.124794885 0.919501161
C -1.688145278 1.272422784 0.251450568
C 0.022825888 -1.043397200 0.152871549
C 4.555873421 0.207944329 -1.116289643
N 2.525342196 -0.410445963 -0.538614313
H -0.809754051 3.076278979 -0.343729976
H -0.764997399 -2.375400497 -1.212958186
H 0.007507107 -1.956018870 2.002410947

