8

O -4.027128221 0.665840635 -0.423961133
C -1.876909794 1.048549840 0.140369650
C 0.124117495 -1.024450106 0.023620556
C 2.667009087 -0.024507197 -0.315800070
N 4.640536458 0.829652640 -0.578110326
H -1.220878501 2.912709350 0.823760606
H -0.353584180 -2.346991961 -1.481996492
H 0.046837656 -2.060803220 1.812117208

