8

O -3.806121954 0.954632323 -0.537981482
C -1.656389489 1.226612724 0.090034244
C 0.165283799 -0.979664372 0.108882259
C 2.718168357 0.305946735 -1.549692396
N 3.564941613 -0.479572863 0.373087741
H -0.884606877 3.056203624 0.735894105
H -0.416954690 -2.494547578 -1.143496767
H 0.326592390 -1.693430294 2.037912551

