10

O 4.081418900 -0.891247677 0.223359940
C 1.895220409 -0.397616650 0.060717656
C 0.272473090 1.925646511 0.603862456
N -1.859563034 0.607976389 -0.632796090
C -0.465042494 -1.806647604 -0.816418926
H 0.064726408 2.262236251 2.636176788
H 0.864551554 3.675064061 -0.316228886
H -3.445711290 0.520490309 0.420903462
H -1.025855212 -3.275107307 0.531017217
H -0.382218349 -2.620794304 -2.710593636

