10

O 3.539311674 0.111091179 -1.604591170
C 1.581131543 -0.348878138 -0.575256726
C 0.048441750 1.992842545 0.973586030
N -1.607321975 1.728652049 -0.982369137
C -0.111579446 -2.374107887 -0.645076097
H -0.509252278 1.525228625 2.899847704
H 1.364225906 3.555074767 0.800409393
H -3.226267921 0.845986884 -0.446443980
H -1.565535293 -2.522906339 0.776281918
H 0.452199802 -4.110048723 -1.586170384

