10

C 2.131133818 1.305799543 -0.000107072
C 2.124070211 -1.316451570 -0.040411623
N -0.007060414 -2.638141876 -0.040440026
C -2.130745593 -1.305731607 0.000116124
C -2.123693626 1.316751753 0.040422451
N 0.007124948 2.638386501 0.040448548
H 3.894098059 2.352753547 -0.000793175
H 3.881170178 -2.372841449 -0.072747691
H -3.894274371 -2.352365719 0.000784576
H -3.881823192 2.371840877 0.072727886

