12

N 4.983185945 2.438029139 1.422536958
C 3.483973161 0.952132385 0.934824195
C 1.578609987 -0.956831832 0.237693475
O -0.038688401 -1.398299482 2.357424685
C -2.305031235 -0.282748079 1.805315649
C -2.523421214 0.560269119 -0.534915363
C -0.128981329 -0.042922597 -1.951984304
H 2.564915461 -2.714542256 -0.185759927
H -3.633736772 -0.260584842 3.353302851
H -4.167137897 1.458695375 -1.334055956
H 0.690674168 1.579780464 -2.919347769
H -0.415692145 -1.536835380 -3.348346534

