14

C 3.287567632 -0.501084333 1.988780409
C 1.263431354 1.019685219 0.641588872
O 2.585824393 2.641101357 -1.079615048
C -0.612823461 -0.615326592 -0.650289417
C -4.947053664 -0.931731148 -1.576934820
O -2.962315114 0.054096869 -0.543038616
H 4.261782279 -1.733632290 0.651373458
H 4.681674435 0.766326500 2.822125196
H 2.456605317 -1.659715842 3.476344166
H 0.228595143 2.177329534 2.018350579
H 1.356953427 3.512622958 -2.087742796
H -0.117192821 -2.224976276 -1.821713596
H -4.754608490 -2.597261223 -2.745417263
H -6.704620431 -0.019155360 -1.119509529

