10

C -5.041233154 -2.501204346 1.778588534
C -3.369942608 -2.632310276 -0.497349309
C -1.528312791 -1.004635100 -0.953714974
O -0.031831265 -1.167383189 -3.047378603
H 1.177819598 0.175706149 -3.035313156
H -1.117539546 0.549481996 0.327843710
H -3.685387541 -4.141964534 -1.851074914
H -7.024629677 -2.281736581 1.243732546
H -4.538312782 -0.909676834 2.991701811
H -4.908754112 -4.223656015 2.911232453

