8

O 0.618879731 -3.662395167 -0.627922467
C 0.474740304 -1.428005712 -0.249376404
C 2.763328730 0.203304050 -0.089050849
C 2.825280849 2.621866345 0.315654523
C -1.927856584 -0.141553072 0.079021392
C -3.887425587 0.954077046 0.349592020
H 4.610912318 -0.683899236 -0.322507388
H -5.639214007 1.919009415 0.584592786

