17

C -3.886967858 0.004659214 1.313317705
C -1.917963433 1.728931181 0.187774318
C 0.567306686 2.156918734 1.485449002
C 0.483773762 0.758961633 -0.983068336
C 1.091772658 -2.021997599 -1.111679392
C 3.770886763 -2.856773986 -1.468406035
O 5.224208532 -0.861728228 -1.678030689
H -5.088312581 1.044669307 2.630096915
H -3.041503880 -1.556916895 2.361387781
H -5.103943016 -0.803560114 -0.146009406
H -2.707458882 3.375911156 -0.743807824
H 1.367262412 4.038177620 1.522411365
H 0.939268226 1.052322452 3.170942598
H 1.143824521 1.821011809 -2.605637944
H 0.067417151 -2.964124319 -2.653765829
H 0.454932592 -3.048130525 0.570744363
H 6.934133527 -1.436387309 -1.915050873

