8

C -1.925411939 -0.275514982 -0.059111994
O 0.526487109 -1.407932871 -0.130383298
C 2.463491120 0.184544701 0.058221574
O 2.309987835 2.429523992 0.267185145
H -2.154415131 1.047761730 -1.620649023
H -2.200169331 0.728599668 1.717983014
H -3.262592066 -1.824303920 -0.227842956
H 4.242622422 -0.882678317 -0.005402444

