10

C -2.341187100 0.546515919 -0.414296847
C -0.738384821 2.167900972 0.643475499
N 1.106138167 0.310055227 1.486894492
C 2.755438310 -0.534825866 -0.486293145
N 1.444995144 -2.247711703 -1.562299704
C -0.607068111 -1.607833392 0.240086416
H -4.165051488 0.654180798 -1.314502960
H -0.590453942 4.185568906 0.926380237
H 4.650762786 0.133628241 -0.890866671
H -1.275297662 -3.176375882 1.388840269

