14

C 4.759304573 -0.131892112 -0.094663203
C 2.046904775 0.735385542 -0.031548014
C 0.040398830 -1.111274612 -0.214139702
C -2.219665919 0.010582221 0.153657354
N -4.827026840 -0.698830207 0.138893415
C -3.040748669 2.362200647 0.776947706
O 1.521180416 2.982774385 0.249715893
H 5.991969957 1.456684423 -0.523582184
H 5.034092181 -1.636460059 -1.477611363
H 5.272213433 -0.882436924 1.759780657
H 0.326906179 -3.115384215 -0.466815208
H -5.523164508 -1.493530813 1.717857253
H -5.487991471 -1.428859226 -1.491938114
H -3.545760043 3.750472581 -0.648074601

