13

O -3.124740930 -1.301821650 1.781290748
C -1.916024971 -0.040614164 -0.187593830
C -0.080327495 2.143149585 0.449835471
N 2.015864625 0.748616044 -0.812142230
C 2.563852793 -1.887153603 0.120285471
C 0.317728308 -1.407886082 -1.471380199
H -1.862650053 -2.230677863 2.704930637
H -3.390562203 0.557940183 -1.494913318
H 0.317950313 2.484218222 2.441441871
H -0.526427205 3.910785116 -0.508658734
H 2.141013439 -1.919519471 2.151452172
H 3.207678723 1.579218025 -2.043181656
H 0.187042578 -2.106777648 -3.395950757

