13

O -3.033514628 -1.439824645 1.796675500
C -1.915899909 -0.087389988 -0.168895520
C -0.183328700 2.194138156 0.400762364
N 1.720190252 1.142127056 -1.385552524
C 2.583815633 -1.722666379 -0.097750109
C 0.311259568 -1.274926841 -1.617528594
H -1.729435133 -2.221801630 2.787112955
H -3.446896450 0.450882738 -1.434929253
H 0.491395575 2.375312682 2.338586195
H -0.894626167 4.009289887 -0.261372423
H 2.232183313 -1.478435662 1.929362034
H 3.731705711 0.485539975 -0.986669851
H 0.066385039 -2.152365571 -3.456398598

