17

C 4.105528385 0.016752044 0.616896709
C 1.428884888 -0.688275218 -0.129320629
C -0.053087944 -2.382161352 1.510384600
C -2.718227468 -1.722537236 0.943870503
C -2.854839681 0.121899354 -1.298199952
C -0.275753069 1.417107303 -1.222644488
O -0.236244697 3.631752767 0.280760711
H 4.080339205 1.448467497 2.098148762
H 5.147622996 0.798998996 -0.981684810
H 5.102889777 -1.635306835 1.333602082
H 1.517221742 -2.178629306 -1.629726172
H -3.200649187 -0.764568129 2.739914059
H -3.995292118 -3.340308376 0.893386450
H -3.056446511 -0.933671934 -3.062540141
H -4.403174422 1.476840147 -1.197446936
H 0.353592664 2.042569857 -3.082932572
H -0.720709135 3.221607251 1.979943558

