10

N -2.904500399 0.301325353 0.603247236
C -0.368090076 0.321584861 -0.195067867
C 1.574908013 2.229740313 0.313771033
N 3.795264759 0.842590952 0.096144654
N 3.374714109 -1.554454090 -0.252438101
N 0.964265958 -1.976098797 -0.379047011
H -4.170771822 0.140562043 -0.810988968
H -3.281082621 1.857038322 1.639798298
H 0.020072387 1.355138345 -2.100604877
H 0.314052772 -3.747019579 -0.624253130

