12

N 4.718117652 2.703814904 0.213829503
C 3.056909475 1.483038298 -0.461144216
C 0.781469216 -2.519430037 0.268900847
O -0.734628763 -1.965247820 2.214446816
C -2.045794996 0.069490634 1.934247770
C -1.648566080 1.033371862 -0.673825559
C 0.943106845 -0.146174587 -1.304794152
H 2.340285606 -3.738248887 0.758377670
H -3.510718039 0.441974532 3.297556894
H -3.059841328 0.133751716 -1.919057225
H -1.756069670 3.072231167 -0.896877417
H 1.167135446 -0.488016537 -3.319919535

