11

N 3.020633347 1.148823546 0.627233889
C 2.810526869 -0.363673314 -1.198511835
O 0.749380702 -1.759574620 -1.607443145
C -1.257052413 -1.365113945 0.127036102
C -2.500990505 1.152930658 -0.245872228
O -3.978111258 1.490352445 1.706964872
H 4.724338517 2.020162316 0.598382288
H 4.219912789 -0.757052990 -2.650766721
H -0.617933545 -1.648608088 2.073727718
H -2.676668951 -2.797330855 -0.336199550
H -4.865644527 3.063454088 1.490107196

