8

N 4.602927469 -0.620285631 2.279865620
C 2.962303096 -0.390660039 0.858338361
C 1.153585694 -0.177873873 -1.105908735
C -1.452915629 -0.714247727 -0.296921233
O -1.232343809 1.983016102 0.172737087
H -1.553827608 2.881012633 -1.379389484
H -2.824269449 -1.172750843 -1.756023882
H -1.850961360 -1.643548309 1.493712057

