13

C -2.275562052 -1.145731633 0.371728083
O -0.427498889 -2.713031571 -0.760654223
C 2.712268727 -0.498149910 0.279625458
C 1.422842508 1.919735694 0.357333642
N 0.272081728 1.965339698 -2.090757665
C -1.352418557 1.559335272 0.036965821
H -2.486358091 -1.732427344 2.337742375
H -4.079646280 -1.393979889 -0.606580883
H 2.785648852 -1.860178631 1.810292111
H 4.059055711 -0.777184489 -1.239960918
H 2.218146220 3.572111140 1.310297582
H -0.117098977 -1.872632758 -2.382748471
H -2.728412732 3.018685909 0.510894110

