12

C -0.860578556 1.994895790 -1.730020268
O -1.440428394 3.713485293 -0.381321126
C 0.834512505 -0.177640246 -1.000740166
H -0.099925429 -1.947438058 -1.542103048
C 3.570805585 0.139219374 -1.965764433
H 4.339329364 -1.524163821 -2.895010326
H 3.936558882 1.807178031 -3.113892144
C 4.197792449 0.360862554 0.856769170
H 4.773562538 2.243113225 1.480487167
H 5.504419219 -1.048496361 1.607335940
O 1.630575263 -0.174753689 1.557742516
H -1.516326390 1.902723907 -3.727843281

