14

O -2.051586402 3.373697531 0.246084067
C -1.344878777 0.969607136 1.149433361
C -2.107838257 -1.248852400 -0.535094925
C 1.497699379 -2.345690526 0.452443879
C 2.651807960 -0.266305535 -1.066118983
C 1.406773354 0.382910764 1.392559723
H -0.924976718 3.822199423 -1.103928623
H -2.274400551 0.784201816 2.979629087
H -2.079875715 -0.890049137 -2.556845518
H -3.801056845 -2.271626225 0.036008486
H -0.541653409 -3.207612771 -0.142979400
H 1.900295967 0.371775893 -2.862670366
H 4.699365919 -0.328704934 -1.015958754
H 2.515266687 1.003121316 2.996805545

