14

C -3.218885271 -1.072486566 -0.070877485
C -0.881848009 -1.365762045 -1.640195575
O 0.578401665 2.409176876 -1.309244872
C 2.274015198 2.595992064 0.473893537
C 2.781488582 -0.180646895 1.559307531
O 4.025935766 -1.078926772 3.126027965
H -3.799122862 0.896981049 0.012552770
H -2.963278591 -1.781445441 1.849916436
H -4.747182528 -2.172939795 -0.929204829
H -0.229420518 -3.324433675 -1.778228901
H -0.935768132 -0.511334378 -3.489371560
H 1.717211572 3.637609690 2.200355318
H 4.189406997 3.197098089 -0.111512134
H 1.259853309 -1.221953623 0.087374624

