16

C 2.566486107 1.805447590 0.507124654
C 1.253248961 -0.389425047 -0.743173708
C 0.637993196 -2.742095956 0.748905474
C -2.022269474 -2.955637200 -0.426353205
C -2.848737925 1.869783127 -0.134243007
O -1.385552391 0.114310780 -1.548350483
H 2.627532425 3.461689378 -0.721270365
H 1.689298597 2.322648604 2.298295098
H 4.510087662 1.239318996 0.903344041
H 2.182852088 -0.855556779 -2.522896834
H 1.917945480 -4.317440231 0.376575740
H 0.591974529 -2.405960109 2.788946613
H -1.786710653 -3.860722548 -2.287091309
H -2.793458107 1.436306126 1.880386928
H -2.182697943 3.786800166 -0.503226319
H -4.778224795 1.644186734 -0.801516394

