13

O -0.163753802 -1.261988302 3.228159801
C 0.967189761 -1.550428917 0.853456651
C -0.973765422 -1.324760223 -1.298786637
C -2.196606951 1.147610758 -1.300629573
C -3.153416711 3.196961935 -1.203103227
C 5.454563595 -0.336106764 0.337469691
C 3.113010039 0.330091482 0.461796530
H -1.019648123 0.343237192 3.275094589
H 1.739442612 -3.459641009 0.826021512
H -2.398049526 -2.795121992 -1.035286609
H -0.042981858 -1.652096315 -3.110944549
H -4.031743783 5.006953163 -1.165338581
H 2.669978205 2.333732906 0.261466721

