9

C -2.964052680 -1.742812693 0.555412731
C -1.657247217 0.648082897 1.088548105
C -2.128969609 2.596499682 -0.832606395
H -2.749413958 1.970458721 -2.714555087
H -0.603530903 3.977311148 -0.962753459
H -3.703267808 3.649035956 0.043369366
H -3.502495557 -2.130283876 -1.413957998
H -4.718215748 -1.496431183 1.658435325
H -2.042024199 -3.371991562 1.418950201

