12

C -1.925980123 1.433142215 -1.054370556
C -0.695914587 -0.851614187 0.112886947
N -0.291810714 -2.830129925 -1.717159207
C 1.932742527 -1.771766340 -0.435015086
C 2.948920074 0.680762309 -0.006728086
N 2.657478196 2.090948773 1.735553990
H -1.102102090 1.884063522 -2.909294936
H -3.919673348 0.971329451 -1.341102518
H -1.813966777 3.098983679 0.144423888
H 0.496378594 0.679277627 2.442042275
H -0.598742318 -2.185310206 -3.504745143
H 2.862977711 -3.140612210 0.765091054

