12

C 4.076370062 0.741253425 -1.239076488
O 1.407872873 0.304416170 -1.116946361
C 0.652552383 -1.544523447 0.283515062
C -2.144014267 -1.627606277 0.267597030
C -3.523853128 0.481799565 1.441827207
O -3.634084538 0.089992330 -1.178856226
H 4.635008631 0.621270291 -3.216139234
H 4.433057191 2.640949877 -0.531306308
H 5.047483914 -0.671556659 -0.101518960
H -2.946059010 -3.506200762 0.465731356
H -2.467526762 2.138257916 2.043931102
H -5.238549965 0.077958932 2.496045715

