12

C 3.184822107 0.499237693 -1.068105123
O 2.102992055 1.612801765 1.080066088
C 1.250007779 -0.874667428 1.402515310
C -1.302490387 -1.219015288 0.221620258
C -3.291580541 0.560391706 0.965985211
O -2.334230792 0.562413694 -1.519621695
H 2.169052779 0.883117093 -2.807340602
H 5.229486196 0.713005591 -1.109264360
H 3.029627045 -1.703993769 -0.515357586
H -1.828301597 -3.169958013 -0.141090902
H -2.779235821 2.193905021 2.098010736
H -5.211036989 -0.132396234 1.182683262

