16

C 4.049321013 -2.210771242 2.060615664
C 1.981832963 -0.554050957 1.089804130
O 2.892905908 1.633792201 0.138354616
C -3.204002279 2.283086393 -3.689885165
N -1.873606288 2.179008367 -1.727320416
C -2.619881226 0.474574424 0.299795771
C -0.466275578 -1.169306344 1.167147238
H 3.301823593 -3.965515685 2.830421585
H 5.100200489 -1.222587324 3.536607457
H 5.378745515 -2.646639313 0.544141535
H 1.497517493 2.516922332 -0.682170363
H -4.911313084 1.138532230 -3.944726505
H -2.665546873 3.553859900 -5.213447921
H -4.234123246 -0.700812247 -0.265992142
H -3.263549156 1.676735736 1.862027388
H -0.971821687 -2.975282226 1.980990882

