10

O 4.023611157 1.166771069 -0.271552983
C 1.532963652 0.778371255 -0.140068296
N 0.541353320 -1.281506339 -1.366979634
N -2.036265542 -1.019882090 -1.190671172
C -2.391634700 0.978691862 0.451546599
C -0.232215933 2.269439264 1.114192709
H 4.900023672 -0.308994164 -0.864093144
H -3.021142364 -2.648245372 -1.034078828
H -4.328451741 1.314323644 1.032168598
H 1.202732292 -1.926231854 -3.036699534

