14

O 4.297285112 -0.598030799 0.605113001
C 2.454677834 0.692663086 -0.733087144
C 0.208542371 -0.957481066 -1.672739267
C -0.759483632 -2.263758445 0.631212197
C -3.428743893 -1.411004186 0.417699129
N -1.500806051 0.537565572 -0.121981897
C 0.486264667 2.224268460 0.891230027
H 3.374110569 -1.831602817 1.601454055
H 3.375262187 1.829998023 -2.179689008
H -0.263556399 -1.302801417 -3.646632792
H 0.736570873 2.085758376 2.928283452
H -4.642786120 -1.677567442 -1.233222041
H -4.458511764 -1.235444491 2.184517447
H 0.198214602 4.175734791 0.290371423

