14

O 4.529094660 -0.058404461 0.298970206
C 2.360924420 0.787002617 -0.912622596
C 0.234543056 -1.050648816 -1.473028985
C -0.709450241 -1.776336793 1.235798815
C -3.246708238 -0.615127226 0.359042824
N -1.732557433 1.077117586 -1.306858205
C 0.171453604 1.822506884 0.634936356
H 4.072561602 -1.449842216 1.381241964
H 2.901948021 2.006475238 -2.485294837
H 0.139053097 -2.424183173 -3.001720326
H 0.201580657 -0.001209198 2.460593811
H -4.388587702 -1.946318131 -0.727603253
H -4.437869435 0.354743678 1.737489523
H -0.018945714 3.542525436 1.761581453

