14

C 3.273928798 -0.990743175 0.363169343
C 0.980949197 0.646599122 -0.129624970
C -1.193529232 -0.304831249 -1.856673700
C -3.177015063 0.572776045 0.110698437
C -0.993038266 0.888628611 1.966316214
O -0.854041842 1.025202444 4.213526932
H 4.415696579 -0.198475781 1.885400541
H 2.710385520 -2.895618799 0.922767534
H 4.454512631 -1.139694298 -1.321792465
H 1.550758561 2.555483120 -0.693030978
H -1.315141782 0.549728095 -3.723369146
H -1.160197543 -2.355507445 -2.060388840
H -4.037128406 2.391169034 -0.348934112
H -4.656139190 -0.744715743 0.671935190

