14

C 3.076447542 0.038095858 -0.354265501
C 0.350983463 -0.138615739 0.508841999
O 0.222207075 -1.575897096 2.786568563
C -1.558344847 -1.151948435 -1.363454822
O -3.548618102 0.708774362 -0.839939572
C -1.075484031 2.341915325 0.844985991
H 3.227896241 0.903262348 -2.220140315
H 3.937260727 -1.835187948 -0.405021561
H 4.151863392 1.181514655 0.984616550
H -0.289390920 -0.377561346 4.057548352
H -2.219131032 -3.077246292 -1.043101306
H -1.045004223 -0.867572716 -3.334112833
H -4.568990047 0.133614408 0.550752175
H -0.613707551 3.605642194 -0.735193451

