17

C -2.252327832 -2.360916257 0.907366776
C -1.150842737 -0.082915627 -0.393446459
C 1.578017199 -0.285133783 -1.236776899
C 3.447873061 0.077179533 0.927794583
O 3.554582361 2.602137416 1.765168266
C -2.837447738 1.729572535 -1.617405252
O -1.774463905 2.281931393 0.786693005
H -2.332631535 -3.962572285 -0.390999642
H -1.098693534 -2.909177301 2.527432158
H -4.156157436 -1.958469297 1.580657978
H 1.982046729 1.136554839 -2.678309536
H 1.865433015 -2.141393047 -2.099798909
H 5.348108160 -0.412478817 0.290230885
H 2.985893492 -1.204724668 2.496407012
H 1.844503807 3.209069637 1.906289876
H -4.864275760 1.401988435 -1.603157359
H -2.139617347 2.879347293 -3.168146465

