17

C -3.104722343 -2.962216886 0.398147380
C -1.804355498 -1.139136980 -1.307687341
C 1.979514515 -0.191271294 -0.868539802
C 3.779081617 0.949953304 1.031058025
O 3.809818466 3.600383238 1.055372942
C -2.695699362 1.463063703 -1.174769316
O -0.695332853 1.290322553 0.592804421
H -4.515542375 -3.937580506 -0.761885776
H -1.813445931 -4.408330332 1.106150318
H -4.074115373 -2.081758563 2.005683575
H 2.123789568 0.659485826 -2.726699847
H 2.279911748 -2.221703308 -0.943240827
H 5.674018435 0.333601989 0.470029160
H 3.404418242 0.167182407 2.915422184
H 2.102458698 4.129691160 1.375184636
H -4.450521737 1.820771719 -0.158633154
H -2.369034728 2.762092887 -2.740174520

