13

C -3.018641954 1.123883413 0.175913244
C -1.072849942 -0.993378398 0.352229189
C 1.375453695 -0.179392173 -0.838754921
C 3.235930960 1.259508150 0.660190561
O 3.506990119 -1.898894962 -0.415620109
H -4.792633012 0.570191297 1.064902548
H -2.327520336 2.820002750 1.124700890
H -3.423683546 1.606651538 -1.790095096
H -1.780187432 -2.703800580 -0.571560460
H -0.709777051 -1.431722898 2.341775108
H 1.227292061 0.078348461 -2.881252024
H 4.556600058 2.128210733 -0.688681490
H 3.256746652 -2.717144560 1.191673464

