11

O -4.471730568 -2.179493762 2.046219013
C -3.940880573 -1.070571764 -0.309392821
C -1.639496849 0.636366935 -0.205779988
N 0.557351666 -0.839969808 0.479379827
C 2.753100549 -0.484967577 0.897739642
O 4.906904996 -0.355173496 1.336621354
H -1.942442756 2.114206596 1.203859873
H -1.343156877 1.525020756 -2.047336823
H -5.590701279 0.054299088 -0.824945049
H -3.660781965 -2.511462328 -1.774007895
H -3.017700058 -3.145808882 2.545247589

