12

C 2.735055290 -1.962508529 1.397609279
C 0.252137899 -0.987777231 0.545792986
C -1.499917520 -1.568428180 -1.182901355
H -1.629813174 -2.891656932 -2.727110106
C -3.082976773 0.626662549 -0.291201731
H -4.821317410 0.129719343 0.705334664
H -3.463666919 2.132392281 -1.649478912
N -0.945739668 1.251652766 1.445847618
H -1.382960783 1.284161498 3.310892729
H 2.689611364 -2.448851960 3.405160073
H 4.196713150 -0.529915620 1.133886603
H 3.253126749 -3.647195552 0.333322933

