14

O 2.508022403 5.310322784 0.179529424
C 2.438476872 3.150430849 0.014083600
C 3.186760966 -1.342548631 0.040269686
C 0.660872526 -1.834781412 0.008278758
C -1.772522306 -2.172360820 -0.133169945
C -3.136933613 0.293472256 -0.089778186
N -1.277685199 2.136343396 0.643176828
H 4.202041706 -1.271061312 1.816508610
H 4.215834666 -1.124638415 -1.713795627
H 2.334048679 -3.719523383 -0.037654210
H -2.661467295 -4.013626657 -0.238724320
H -4.791744632 0.154954235 1.183689050
H -3.945320352 0.500548993 -2.009575012
H -1.945618120 3.905647253 0.340816075

