9

C -2.563182639 -0.779415991 -0.061188935
C 0.187301452 -1.389393467 0.285258354
C 1.988165606 0.270679910 0.273171136
C 3.773652869 1.933426646 0.258195095
C 5.514727089 3.596198779 0.238278005
H -3.638822875 -1.404176285 1.583804447
H -3.304348324 -1.764767078 -1.714371332
H -2.857230279 1.240232055 -0.313443846
H 0.745093254 -3.346439989 0.567716681

