10

C -3.243096499 0.392769748 0.088892925
C -0.350270980 0.170616871 0.430579313
N -0.136976364 -2.196381167 0.955894868
O 3.395607602 -2.313366666 1.344917799
C 4.617956631 -0.451574303 1.089302710
O 6.231973566 0.994396715 0.962904674
O 1.151829911 1.921285250 0.212694496
H -3.533924253 1.090562439 -1.824361934
H -4.259407158 -1.377287183 0.345351229
H -3.873694327 1.768980184 1.481614786

