12

O -1.143785196 -1.298205206 -2.367968734
C -2.324095397 -1.367799926 -0.279128082
C -1.177929826 -0.040440441 1.680247640
C 0.665008210 1.747419694 0.505541763
C 1.732786468 0.093590066 -1.607135044
O 3.134909055 0.438656853 -3.299308368
H -3.900117820 -2.676540922 -0.072609759
H 0.871302298 -1.961382196 1.375958422
H -1.950997735 0.105430617 3.560561474
H -0.230034963 3.376163416 -0.389495741
H 2.178360417 2.360419788 1.758154264
H 2.128085822 -2.075032045 0.011380176

