15

C 3.512568024 0.471964977 0.417100067
C 0.722778102 0.205480655 0.082836447
C -1.387855627 1.255375697 1.732627012
C -3.136625720 -0.445023038 0.151929993
O -3.075087979 0.697787003 -2.333102209
C -0.548382572 -0.184487461 -2.481107487
C -0.817484126 -2.150634507 -0.500064014
H 4.106450458 -0.160817999 2.290034387
H 4.537459665 -0.652220812 -0.978473051
H 4.094749198 2.439823321 0.191835359
H -1.790454163 3.280187665 1.692989553
H -1.215554311 0.574930427 3.671448581
H -5.013452706 -1.014569050 0.754669573
H 0.427952821 -0.167899067 -4.275133591
H -0.417061044 -4.149897812 -0.417590659

