11

C -3.380061448 -0.043632983 0.148662203
C -0.657389194 -0.833990638 0.344650518
N 0.178542609 -2.881749646 1.070377953
O 4.563004132 -2.161890887 -0.269175537
C 3.855482073 0.015095643 -0.543804295
C 1.435364457 0.959427975 0.029997456
H -4.637955942 -1.564066881 0.721115067
H -3.697256079 1.608637433 1.336659073
H -3.747531430 0.475402294 -1.811384108
H 5.103656326 1.415366355 -1.471904296
H 1.124118363 2.897365813 0.619433685

