17

C 4.366033310 -0.658853561 -0.541888245
N 2.048181644 0.765147519 -0.831888942
C -0.249444944 -0.105321429 -0.021647512
O -0.130376552 -2.572211826 0.574616241
N -2.300037974 1.125011372 0.140774108
C -2.438095091 -3.716712076 1.321533950
C -2.262960791 3.753959296 -0.572262625
H 4.861463848 -0.992658771 1.437764239
H 4.207277116 -2.482797469 -1.480493233
H 5.891240223 0.393745376 -1.438555713
H 2.205485414 2.653959035 -0.885921597
H -3.177587707 -2.828843871 3.027684369
H -1.986315375 -5.691585197 1.673784002
H -3.852172992 -3.547994757 -0.167514338
H -1.680195673 4.036059275 -2.545510185
H -4.154944156 4.541360494 -0.371749966
H -1.004546112 4.895013838 0.627527874

