14

C -3.287217050 -1.314258864 0.136853418
C -1.433242616 0.722050708 -0.549300488
O -0.460147404 2.093288821 1.639480050
C 2.050115685 1.650542053 0.919451896
C 2.536177602 -1.782177805 0.419777091
C 1.278648789 -0.000329833 -1.303578680
H -4.908004269 -0.500682294 1.118521750
H -2.388182284 -2.714360805 1.348982959
H -3.969949115 -2.240462978 -1.577477928
H -2.255536946 2.094028649 -1.860319775
H 3.324743080 3.240704465 0.670006064
H 4.541495950 -1.787539033 -0.157690389
H 2.944744800 0.225933237 2.380830871
H 1.993771100 0.394142068 -3.182672015

