12

O 2.234509094 1.345236218 -2.682525874
C 2.094614067 -0.548863356 -1.310601053
C 1.014667901 0.282395022 1.183915269
C -0.228745659 2.547981361 0.138513391
N -1.188591207 -0.817024186 2.298721269
C -2.296955509 -2.224807353 0.524965407
O -1.424361394 -2.574835711 -1.638068575
H 3.067842013 -2.299612691 -1.786028311
H 2.493403840 0.674895938 2.565136125
H -1.728056974 2.208274158 -1.201473225
H -0.119593869 4.409903378 0.999075733
H -4.067550105 -3.147670281 1.075387617

