10

N 3.336677740 0.590684620 -0.090510058
C 2.238289944 -1.121428168 1.431511759
O -0.240722328 -1.323285027 1.153711266
C -1.531372163 0.470768780 -0.424050555
C -4.242328097 0.082444915 -0.089892042
N -6.382992314 -0.166786944 0.116874648
H 5.178909245 0.748960673 0.452721536
H 3.771707452 -1.835097430 -0.267683825
H -1.031121595 0.191502275 -2.405040795
H -1.031633088 2.402670776 0.091812552

