11

C -2.875636514 -0.615048198 0.233821256
C -0.415772024 0.575743803 0.571104299
C 1.940385978 -0.897578373 0.836642964
O 3.559908706 0.881341978 -0.436912069
C 1.812724320 2.391911091 -1.517442840
N 1.148305308 3.718152198 -3.166881539
H -4.285048228 0.688520523 -0.505234115
H -2.870845151 -2.394163021 -0.826024309
H -3.433238323 -1.094741833 2.185155872
H 2.436852596 -1.134807353 2.832283721
H 2.093649721 -2.718661217 -0.141257217

