15

C -3.403455748 0.375561789 0.409132244
C -1.844440860 -0.744815067 -1.701523840
C 0.550702097 0.348391515 -2.674022276
C 1.769843940 2.207957705 -1.073100576
N 2.846253106 3.166381101 0.591793379
N 0.499034226 -2.033960340 -1.294050038
C 3.090205656 -0.538006917 2.690804102
H -2.290711590 1.606038001 1.634706412
H -4.963724147 1.495173363 -0.343921481
H -4.198346441 -1.141464386 1.559936072
H -2.995718272 -1.600690019 -3.189146084
H 1.000555294 0.427454197 -4.674098712
H 3.984799754 -1.033091843 0.949030173
H 4.071415842 -0.973887782 4.446896581
H 1.135340615 -0.045310870 2.797546964

