14

N 4.843935618 0.204222438 0.520399016
C 2.622193306 -0.326522640 -0.107491194
O 1.531037095 -2.622509759 -0.415177516
C -0.846181432 -2.005038252 -1.543013991
C -2.603802850 -1.186407912 0.611731729
C -1.680096065 1.541704410 0.915016066
C 0.575376932 1.441376564 -0.890311053
H 5.871807413 -1.368481078 0.921048942
H -0.341560438 -0.001474213 -2.783328646
H -2.257679064 -2.378719329 2.255369743
H -4.588739877 -1.337670133 0.093819497
H -1.175105687 2.176986473 2.810653462
H -3.081884549 2.851295008 0.166860341
H 1.166859527 3.163652394 -1.845169784

