13

C 2.572715665 1.340025809 -0.213279347
C -2.377704905 1.387622548 0.296662114
C -2.444608920 -1.160187339 -0.695257567
O -0.823055020 -1.749334043 1.346872721
C 2.338017463 -1.171136204 0.536302743
H 2.705694993 1.823523463 -2.198073228
H 3.160565488 2.762523385 1.133610041
H -1.527683852 2.974174279 -0.646231570
H -3.374895277 1.715458246 2.048312319
H -4.230099887 -2.180219662 -0.559930065
H -1.587650682 -1.406683706 -2.554290155
H 3.034194249 -1.726461082 2.383847970
H 2.557687334 -2.641364936 -0.882310331

