19

C 5.068192365 1.204384896 0.053109619
O 3.169742490 1.136150344 1.942727462
C 1.882828360 -1.046454947 2.034018752
C -1.463216715 -0.376178690 -0.167917378
C -1.667408444 2.425962444 -0.431601920
C -2.618297597 -2.170968149 -2.033511417
C -3.578576743 -2.025587928 0.637162340
H 4.209308402 1.256519624 -1.828370289
H 6.279834848 -0.458934484 0.194739055
H 6.161719161 2.922131222 0.348961040
H 0.739544338 -1.565145669 0.107167351
H 0.642430991 -1.006964565 3.677739082
H -0.183005122 3.181792631 -1.649250368
H -1.520995110 3.370448166 1.394707415
H -3.483903524 2.934632951 -1.278585710
H -1.569695639 -3.845975862 -2.577244923
H -3.759690306 -1.367550237 -3.533079735
H -3.150140209 -3.603941838 1.874793206
H -5.401017582 -1.154373445 0.976076840

