10

C 1.289451409 1.281047022 -4.186335058
C 1.825276278 0.593591681 -1.887818673
C 2.363312940 -0.092659262 0.410432338
C 4.993249701 -0.467741042 1.411182029
H 6.400634854 -0.109612997 -0.047686124
H 5.358658237 0.805328482 2.994839285
H 5.243658273 -2.397285869 2.101282230
H 0.801115281 -0.416501817 1.704569738
H 0.995177776 -0.105501123 -5.665408654
H 1.111665332 3.260189317 -4.684966187

