17

C -3.896220184 0.721097020 1.727341127
C -1.527177330 -0.769301968 2.252190713
C -0.256618779 -1.995787835 -0.021898751
C 1.459558999 -0.119718761 -1.326810406
C 3.842222639 0.547558992 0.056827409
C 0.856624871 0.868823129 -3.552284984
O -0.646716946 -0.958500592 4.344425369
H -3.590966487 2.017900068 0.152084006
H -4.470810668 1.757566087 3.406304340
H -5.403844177 -0.577100816 1.171352030
H 0.837473876 -3.601803669 0.670768663
H -1.689499815 -2.667757796 -1.344791452
H 5.054463240 -1.116148311 0.236119881
H 3.433931436 1.187191090 1.976467237
H 4.893398632 2.019926516 -0.926112860
H -0.862328556 0.337662746 -4.532721724
H 2.073766344 2.229815675 -4.479731744

