17

C -4.112089646 0.704372188 1.058763867
C -1.286593254 0.286943876 0.903057842
C -0.183390928 -2.337625174 0.127341897
C 1.643097552 -0.369302808 -0.692400339
C 4.356670473 -0.101781046 -0.116224544
C 0.011147816 1.332818790 -1.993900376
O 0.216547912 1.215259929 2.663010729
H -5.130277389 -0.103927189 -0.540121540
H -4.493721198 2.724381455 1.179706395
H -4.762099044 -0.188701323 2.803570977
H 0.367989392 -3.532641243 1.697688112
H -1.119031447 -3.332894735 -1.411953642
H 5.363771023 -0.916441147 -1.738355868
H 4.880184854 -1.118979461 1.587898010
H 4.879678597 1.879489610 0.044865292
H -1.170389781 0.548080821 -3.471455426
H 0.558598545 3.295553746 -2.200344867

