13

N -4.893052415 1.868284801 -1.235699132
C -2.581757891 1.612634978 -2.166676203
O -1.190025831 0.432925049 -0.435712679
C 1.343060539 -0.025082562 -1.110377030
C 3.241844442 0.100848183 0.956978418
C 2.483561013 -2.411845925 -0.163174941
H -5.395075357 1.233487906 0.499245724
H -6.207006882 2.724148490 -2.296500255
H 1.790897908 0.673562604 -2.978269637
H 5.089613733 0.864663993 0.531336846
H 2.535391193 0.530838525 2.826816309
H 1.283869517 -3.609049881 0.980163902
H 3.801241774 -3.404649979 -1.370141675

