16

C -4.101663252 -0.578149084 0.745326711
C -1.647460835 -0.645986945 -0.748882703
C 0.311444761 1.183839737 0.333166842
C 2.773495022 1.144284500 -1.057507218
C 5.006508718 0.751797416 -0.002198262
O -0.687344150 -3.140411767 -0.916878562
H -5.450213200 -1.921097128 -0.043280284
H -3.764494009 -1.086661667 2.720424218
H -4.949212619 1.303593287 0.706851887
H -2.037918731 -0.112885738 -2.709500448
H -0.493961389 3.090184094 0.271370624
H 0.628065444 0.744438275 2.334115802
H 2.666330713 1.455578309 -3.086896273
H 6.730333953 0.747220802 -1.105311071
H 5.195726957 0.422439034 2.013984631
H 0.118990347 -3.563711609 0.652474980

