16

C -3.306591675 -0.879001874 1.158156091
C -1.543118814 0.343904719 -0.670291979
C 0.034260073 2.522433964 -0.006718940
C 2.600663580 1.695395572 -0.999434800
C 3.264434870 -0.782882447 -0.136600762
O 0.990186858 -2.520480025 -0.796555277
H -4.025971803 -2.695782094 0.514241400
H -2.451386347 -1.089872897 3.020267251
H -4.918750007 0.406622858 1.377900550
H -1.984686884 0.139983296 -2.657185421
H -0.594877620 4.198091611 -1.035060559
H -0.002889694 2.926923019 2.022519409
H 2.948523213 2.086495105 -2.985057609
H 4.926213915 -1.581281228 -1.051322560
H 3.402891475 -0.990923681 1.923579151
H 0.847025270 -3.922483541 0.379828091

