11

C -3.270983452 -1.212165012 -0.194107395
C -0.777401051 0.035188477 0.064604218
C -0.046947354 2.384124834 0.798309812
N 2.601928412 2.131743009 0.543841201
C 3.292364928 -0.109763306 -0.246170389
O 1.315331472 -1.507914577 -0.582928013
H -3.430438202 -2.872587460 1.022116030
H -4.715875738 0.143563779 0.355377208
H -3.635577403 -1.804935644 -2.137831064
H 3.828007552 3.532072681 0.929937816
H 5.163436961 -0.829607419 -0.605383364

