15

C -1.179030421 2.435020563 -0.332583200
C -0.473469501 -0.313582514 -0.089680903
C -2.376590118 -1.937297070 1.273225596
N 0.794246183 -1.571978428 -2.208216729
C 2.233012298 -1.038810834 0.070464580
C 5.700164648 2.348893082 -0.039533316
N 4.106738263 0.830795319 0.006397706
H -1.470180166 3.273842022 1.529455886
H -2.942118874 2.609326576 -1.390787084
H 0.273584930 3.528071885 -1.300243143
H -4.183701252 -1.894588220 0.277658858
H -1.745305620 -3.895761963 1.356038422
H -2.680915865 -1.252233933 3.195593433
H 1.252790571 -0.313596611 -3.578697875
H 2.813240573 -2.674630447 1.156666117

