10

O -1.348532543 4.163897282 -0.388658668
C -0.905630817 1.980861568 0.216197632
C -2.006752366 -0.489642949 -0.194111212
C 0.311418380 -1.926644967 -0.196958104
O 2.126968238 -0.860969011 -2.227957168
C 2.037297672 0.204320533 0.064525681
H -3.880849643 -1.014001584 -0.833933077
H -0.637244694 1.393091662 2.334375205
H 0.679084251 -3.895170819 0.184320711
H 3.762168890 0.579557006 1.119065500

