19

C 5.386443390 -0.493455547 0.253519629
C 4.645650019 1.909477561 -0.266829253
O 0.405080388 2.179289917 0.015591979
C -0.647381695 0.151735370 0.562200779
C -2.645228141 -0.592135212 2.396040502
C -2.857391095 -1.252929465 -0.457199583
C -4.723631741 0.123909701 -2.104597830
H 2.811744212 -1.602809744 0.718101729
H 6.116898674 -0.973710903 2.107599812
H 5.854964606 -1.784662435 -1.268100357
H 4.324028686 2.533266574 -2.182508347
H 4.585436239 3.344994216 1.180981318
H 1.168108900 -1.810459559 0.888321474
H -3.826675088 0.930925066 3.093181275
H -2.391357099 -2.147764750 3.699663137
H -2.644186392 -3.251772836 -0.859176133
H -4.202412470 -0.024631068 -4.095352247
H -6.625337916 -0.649716925 -1.883137387
H -4.776901911 2.129618220 -1.627019517

