9

C -3.491089567 1.629764798 -1.460623746
C -4.076101173 -0.851114562 -0.147437887
O -2.110222279 -2.647222842 -0.402505391
H -0.604234580 -1.960170995 0.334992846
H -4.507692189 -0.518759244 1.854481277
H -5.739677007 -1.731181259 -0.990956147
H -1.844820582 2.547117473 -0.612786309
H -5.084179448 2.932636058 -1.304459254
H -3.094749143 1.313060381 -3.459176836

