16

C 4.159682644 -0.573849013 -2.464625277
N 1.767244282 -0.012421926 -1.267842334
C 1.787096818 1.354206276 0.678456106
O -0.241964615 2.068904986 1.970327895
C -2.713289935 1.549303963 0.965784541
C -3.497251208 -1.217871966 1.027643932
O -2.893250027 -2.573218578 -1.165985226
H 4.434339823 -2.616961183 -2.533429260
H 4.133033481 0.110653953 -4.409886068
H 5.779498487 0.277520757 -1.491487169
H 3.499748292 2.116928709 1.546916256
H -3.950138549 2.664523738 2.175732772
H -2.821771439 2.269536623 -0.968246647
H -2.689163083 -2.088831203 2.733230570
H -5.552993306 -1.285169195 1.224960347
H -1.200821685 -2.043255960 -1.646788528

