15

O 3.404500936 4.021701589 -1.104253978
C 1.540248736 2.747937893 -0.981972805
C 1.466833291 -3.001732212 0.872055392
C -0.598126060 -1.349476121 -0.229317642
C -1.823539317 0.687248019 1.488515707
C -1.128576567 2.787797886 -0.355761635
C 0.212161385 0.651820341 -2.148790966
H 2.945004561 -1.853674931 1.743875191
H 0.706620358 -4.268901766 2.313268910
H 2.349853347 -4.159518125 -0.590378126
H -2.078401048 -2.525307576 -1.052210618
H -3.857125114 0.432381469 1.666097352
H -1.021315051 0.893778096 3.378245214
H -2.329131120 4.371843255 -0.849772932
H 0.183405441 0.402732781 -4.182805352

