15

O 4.081580774 2.092300532 -0.622999882
C 1.771741055 1.218569747 -0.543658880
C 1.518065335 -1.993460524 0.704089069
C -1.135821380 -1.566091232 -0.388985704
C -2.444657637 0.393401730 1.324155171
C -0.773163983 2.338891971 0.065330780
C -0.357014033 0.590387518 -2.238230040
H 3.516718637 -0.175829189 0.411040320
H 1.633788081 -2.431106883 2.715171573
H 2.595769832 -3.329534915 -0.444461865
H -2.148926175 -3.243488012 -0.999696470
H -4.421019068 0.645392211 0.794119042
H -2.292846621 0.135409932 3.367953161
H -0.918595435 4.377765807 0.088853675
H -0.631358481 0.861646913 -4.240168896

