13

C -1.709715557 -2.992033930 0.368776425
C -1.218131104 1.625914292 -0.464599278
C 1.138106097 3.206582927 -0.729112690
O 2.914635038 1.872009394 0.917752938
C 2.079482992 -0.511535350 1.059226623
N -0.237120491 -0.692751091 0.272072998
H -2.353592415 -3.478770348 -1.525786888
H -3.344499732 -2.681533881 1.580034330
H -0.559204826 -4.525961758 1.111975191
H -2.580136185 1.541107767 -1.991255686
H 0.998886779 5.141075700 -0.035325520
H 1.983774487 3.252204676 -2.646774164
H 3.110525276 -1.910338104 2.117956739

