13

C -2.076591390 -2.479088088 0.584455252
C -0.739803438 0.768838551 -1.230382293
C 0.825240866 3.011469517 -0.459213086
O 2.559231165 1.868501155 1.300720450
C 2.620773630 -0.657887231 0.686770863
N 0.775024702 -1.331909851 -0.759978891
H -3.721792623 -2.482535591 -0.639233064
H -2.436075748 -1.558691858 2.378858583
H -1.375522443 -4.394675644 0.830326478
H -1.973151826 0.736993699 -2.854357952
H -0.197297706 4.525734254 0.492947494
H 1.907008936 3.838302138 -2.052506793
H 3.886021256 -1.867929948 1.721022242

