11

C -1.879079445 1.266877477 -0.702661230
C -0.502422071 -1.272982483 -0.917783722
O 1.873009399 -0.660733744 -2.056638093
C 2.437417888 1.058763602 -0.232730884
N 1.890533038 0.306033398 2.147657867
C 0.127032209 -1.416268529 1.789914154
H -2.122455043 2.101591257 1.143550133
H -3.484629122 1.564571627 -1.966198257
H -1.453380860 -2.812045264 -1.885240425
H 3.914763613 2.416177064 -0.626743562
H -0.792231036 -2.453274580 3.288842252

