15

O -0.087284787 5.214859319 0.511490224
C -0.239019061 2.937743648 0.141853274
C -2.504049726 2.276987359 -1.206534516
C -1.823856187 -2.170802571 0.268692183
C 0.922808069 -1.652909067 0.800573364
C 2.565358621 -0.740150373 -1.289328463
C 1.747941485 1.072193016 0.763752107
H -2.530298910 -0.866757110 -1.267100635
H -4.172444286 2.413459393 0.010708284
H -3.012615806 -1.976798884 1.937283917
H -2.122103289 -4.040166953 -0.553806993
H 1.790333126 -2.858759105 2.210105567
H 1.733594269 -0.494330490 -3.142486157
H 4.535216824 -1.282829222 -1.288886966
H 3.159915800 1.749953155 2.077546099

