8

C 1.273662369 -2.566539360 -1.926406011
C 1.656065344 -0.520487418 -0.640637924
C 2.098982528 1.523563550 0.666497636
N 0.297756568 3.381659968 1.033174613
C -1.159263074 4.994519672 1.395263788
H 3.917204553 1.869133703 1.540099636
H 1.647015578 -2.631817586 -3.939872819
H 0.554183559 -4.260168774 -1.025896559

