15

O -4.616042622 -0.481435793 -0.803504613
C -2.647448154 -0.869388686 1.965657739
C -0.608716179 1.004887586 1.431531525
N 0.544243392 0.502094978 -1.018844404
C 3.121768806 1.344907859 -1.383572450
C 2.535697952 -1.375351083 -1.071653330
H -3.297748380 0.051784014 -1.974342712
H -3.899263078 -2.194154125 -0.113503036
H -3.947823219 -0.145780201 3.396637956
H -1.262673857 2.974273226 1.395801302
H 0.746499040 0.828655979 3.009004559
H 3.567975984 2.101890665 -3.232482115
H 4.027762999 2.302044844 0.189491229
H 3.027099272 -2.265788710 0.708990055
H 2.550668003 -2.620130689 -2.695994575

