13

C -2.578383520 -2.428235785 -0.051594531
C -1.073788833 -0.478186711 1.331184215
O 2.172534562 -1.439163997 0.328456095
C 3.548629365 0.145401329 -0.722009985
O 5.621872444 0.213132629 -1.621622005
C -1.258126855 2.045857980 0.701208465
C 0.169272104 3.609531402 -0.337956598
H -2.678827963 -1.993749406 -2.060913202
H -4.496328680 -2.442138330 0.711960950
H -1.753544826 -4.292778776 0.219285501
H -0.708347435 -0.879834147 3.310016992
H 2.360860434 2.216081864 -0.836932526
H 0.555494953 5.477434894 -1.028413901

