14

C 2.341175271 1.101498530 -1.178014580
C 0.468070799 1.447714894 0.947530430
C -2.263848585 0.965382635 0.136200026
C -2.013582006 -1.854613048 0.507629683
C 1.773040317 -1.709903698 -1.015367629
O 0.952075221 -1.142017546 1.903551285
H 1.936712256 2.073738149 -2.951142468
H 4.242912476 1.607707215 -0.520694607
H 0.783140282 2.896949034 2.372405981
H -3.654030805 1.797587236 1.409504330
H -2.672020943 1.522588224 -1.800544790
H -2.746856516 -2.593295255 2.287431365
H -2.428489462 -3.094193280 -1.055357635
H 3.413249348 -2.957995333 -0.919019848

