11

C -2.858532754 0.466639483 -1.103029889
C -0.351974152 -0.294331458 -0.184529904
O 0.923571896 -2.257191476 -1.033075100
C 1.173626220 -0.000085472 2.239884760
O 0.896927721 0.554781430 4.386280138
C 3.152320046 -0.532706595 0.226371766
O 2.608606194 1.528460397 -1.084807600
H -4.238695892 -0.837477334 -0.285670182
H -2.943720663 0.330723331 -3.153095514
H -3.302680395 2.371937310 -0.471757031
H 5.017654512 -1.402502535 0.234134856

