11

C 2.393351913 -0.154867119 0.274652530
C -0.286668278 -0.001377440 -0.771442518
N -1.821597227 -2.058141975 0.201872318
C -1.383820060 2.524045863 -0.254251784
N -2.280149702 4.449840189 0.184893941
H 3.574922447 1.346303214 -0.494284929
H 2.379707240 0.027106043 2.329511087
H 3.199575917 -1.982505177 -0.221818944
H -0.210352747 -0.193191558 -2.826959682
H -3.587145272 -2.013453618 -0.527134605
H -1.977824212 -1.943758421 2.104962548

