15

C -0.241803572 2.134056242 -0.467935098
C -0.522101924 -0.622085274 0.257934652
C -2.061001622 -2.666489034 -0.875279170
C -2.431467273 -1.895557063 1.862400175
O 2.116552219 -0.905024291 0.706991254
C 2.565941110 1.670784213 0.007466440
O 3.993579233 1.931776839 -2.173086834
H -0.657380350 2.582567922 -2.431143280
H 5.709428973 1.466628332 -1.811656946
H -1.141374340 3.483868470 0.795718091
H -3.497470964 -2.164155592 -2.242892429
H -1.114535751 -4.446037984 -1.221858513
H -4.123829740 -0.863381341 2.371546155
H -1.732103502 -3.176948110 3.295073548
H 3.438177575 2.682698972 1.589248994

