15

C -0.457220596 2.583437593 -0.526769718
C -0.559088324 -0.060428528 0.410830636
C -1.522846777 -2.314830523 -0.973219404
C -2.628554918 -1.582811528 1.565091699
O 1.855042942 -0.404342752 1.735890985
C 3.631561338 0.781863054 0.564732464
O 4.184883503 0.824474223 -1.839267130
H -1.580695715 2.896210359 -2.230932371
H 2.575247085 1.260203229 -2.650383484
H -1.001434962 3.944412716 0.922910473
H -2.617641806 -1.983585930 -2.669715798
H -0.359111950 -3.997055422 -1.013209505
H -4.472081301 -0.700607646 1.603480408
H -2.209449757 -2.805628151 3.150817582
H 5.265101279 1.142159673 1.765525103

