12

O 2.672913196 -2.105662993 0.627078365
C 2.802676985 0.184514144 1.062613692
C 1.050156977 2.092907720 0.317213868
C -0.856161888 -1.374372261 -1.799134941
C -2.398957974 -0.399604000 0.331821413
O -1.522004658 2.107564738 0.624993071
H 4.501517811 0.889596529 2.042352803
H 1.764642696 4.016393405 0.355200122
H -0.670640445 -3.387751027 -2.090241298
H -0.743601391 -0.191525255 -3.465793920
H -2.091674107 -1.517787848 2.050048921
H -4.438524036 -0.331484796 -0.038605971

