17

O 4.314955790 -1.279193446 -0.600685750
C 1.980104601 -0.358164951 -0.027426238
C 0.020992457 -2.314633292 0.740676510
C -2.542755796 -1.049291728 0.331327155
C -2.118368756 0.745179558 -1.869739474
C 0.248725016 3.857993727 0.582995193
C 1.953548563 2.128269352 1.184317308
H 4.262362652 -3.089625264 -0.704951484
H 0.358870764 0.692348673 -1.838527151
H 0.321610751 -3.017076751 2.660525210
H 0.206030792 -3.927753269 -0.550031566
H -3.096146671 0.012414083 2.006655404
H -4.016860035 -2.442562554 -0.053279033
H -2.149397983 -0.222735669 -3.703777600
H -3.359287047 2.360263300 -1.966391709
H -0.183861754 5.432541691 1.846267809
H 3.468938972 2.460174178 2.534381115

