17

C 3.029880136 1.656259306 2.332744900
C 2.027362834 -0.976893561 -2.143474429
O 2.130904613 -0.627414358 1.266650559
C -0.576748004 -1.034969040 1.071475450
C -2.249642606 1.184907205 0.208010961
C -2.780022249 -0.255709632 -2.283550926
C -0.609352053 -2.076675861 -1.611969851
H 2.153516037 1.948118662 4.179176605
H 5.063109757 1.443002560 2.554201489
H 2.645078456 3.245748144 1.078202346
H 3.379548822 -2.552743074 -2.183030686
H -1.227224919 -2.104161360 2.709685868
H -1.193319170 2.922477288 -0.089754016
H -3.864264443 1.581716829 1.421753194
H -4.625438982 -1.175757057 -2.272705466
H -2.547172312 0.810427436 -4.028593174
H -0.884762647 -4.093177380 -1.947672101

