17

C 3.025012372 1.904238560 1.104638556
C 2.315037146 -1.309766494 -0.973968359
O 1.682263222 -1.022711691 1.985245865
C -0.957112796 -1.487013658 1.398643299
C -2.605502923 0.820640706 0.780141230
C -2.202605037 0.334333842 -2.084288830
C -0.472728483 -1.930215170 -1.435749715
H 2.540132364 2.670534012 2.963341424
H 5.033438865 1.597424327 0.909534784
H 2.297543705 3.066339019 -0.410610237
H 3.495600419 -3.005186348 -1.064561528
H -1.701916922 -2.864339353 2.741358169
H -1.917256732 2.610952780 1.528583664
H -4.554793461 0.578672614 1.401358344
H -3.942308299 -0.191732274 -3.055613539
H -1.282341635 1.839866362 -3.149133382
H -0.881006665 -3.716883020 -2.377772803

