11

C -0.154289581 3.362216028 -1.144177163
C -1.778630959 -1.729890424 0.515339123
C 0.861417046 -0.693620799 0.658319714
O 2.349243097 -0.696524609 -1.476524941
C 1.858093923 1.805180420 -0.416681568
H -2.953234867 -0.945814747 2.015249746
H -1.251115650 2.388710424 -2.619951429
H -1.677549414 -3.772775922 0.788523148
H -2.658392597 -1.365729089 -1.304817622
H 1.846498224 -1.150753542 2.410380329
H 3.483739912 2.539985060 0.593869074

