8

N -2.071043627 1.031774099 0.240258287
C 0.293220564 1.853487338 0.136379380
C 1.888725477 -0.233496620 -0.159639452
N 0.478074971 -2.302668680 -0.232795172
N -1.831118574 -1.427758366 0.012257746
H -3.339897833 -2.581757834 0.024319471
H 0.723438429 3.838283505 0.276190465
H 3.915738333 -0.336910332 -0.318063848

