15

O -0.143993729 -1.058641053 -2.726023608
C -0.579587431 0.097557565 -0.353955530
C 1.495470390 -0.586787949 1.510782349
C 4.037512568 0.373943824 0.689836812
O 4.458929582 1.338130980 -1.326933144
C -3.288571001 -0.673527493 0.570480009
C -1.641996258 2.603533451 -0.175795099
H 1.351802525 -0.265123076 -3.398646867
H 1.092494930 0.203613247 3.376433250
H 1.659073902 -2.640974765 1.734167555
H 5.583671271 0.132692090 2.079822255
H -3.275998577 -1.303185862 2.521405216
H -3.931304197 -2.106359849 -0.754808185
H -2.483294354 3.004999398 -2.040142636
H -4.647739754 0.917474279 0.476701027

