15

O -0.096847141 -1.161636305 -2.723280992
C -0.569936694 -0.048239870 -0.348641828
C 1.533172807 -0.618376648 1.515900937
C 4.034566655 0.440395136 0.689290133
O 4.436724336 1.341794195 -1.360384924
C -3.247601682 -0.693294708 0.523473884
C -1.761805177 2.452116556 -0.182025280
H 1.382483986 -0.323034357 -3.378761884
H 1.094098325 0.166186276 3.375910419
H 1.789568599 -2.661788492 1.758489577
H 5.573788268 0.330607226 2.103922367
H -3.360857371 -1.410503881 2.440989168
H -4.213411715 -1.808465558 -0.898609880
H -2.593371297 2.798956965 -2.058430971
H -4.259840434 1.232148223 0.715378312

