17

C -3.913647786 -0.536506645 -0.082774936
C -2.075910484 -0.562694356 -2.252271952
N -0.459921884 1.622856885 -2.783739208
C 0.686615792 -0.712288232 -1.859080587
C 1.854220155 -0.952652816 0.712590891
C 4.116757685 0.541614820 1.376939511
N 1.705871684 1.002561428 2.644649904
H -5.564542689 0.613536587 -0.544190800
H -3.068052604 0.202508966 1.645892722
H -4.575205678 -2.449936568 0.316964009
H -2.814130180 -1.417500800 -3.966344594
H -0.638187857 2.913815577 -1.376617709
H 1.784737042 -1.678408446 -3.301055665
H 1.713609187 -2.846970937 1.492114293
H 5.583348260 -0.261737821 2.557504787
H 4.760035330 1.916928241 -0.001040483
H 0.904403988 2.604874155 1.969290246

