16

C -2.657964668 1.029408256 -0.812615965
C -1.054838811 -0.185467567 1.248495204
C -0.756494633 -3.041543205 0.871678977
O 1.771491819 -3.170342270 -0.120287209
C 1.770776350 0.301503932 1.229521598
C 2.837468449 2.186243504 -0.517050535
H -2.611612880 3.090878096 -0.719549977
H -4.626208706 0.439799022 -0.613166541
H -2.021885860 0.453886383 -2.690562841
H -1.821220567 0.320611085 3.103877219
H -2.063799343 -3.825228294 -0.516647608
H -0.913100678 -4.130582166 2.622825343
H 2.744239245 -2.051223026 1.401820288
H 4.857360081 1.923595081 -0.814179525
H 2.612787118 3.981594609 0.508277557
H 1.864218941 2.393347151 -2.329015280

