17

C 4.244649304 -0.211090307 0.060581653
C 2.010914185 1.471857903 0.743729174
C -0.203098070 -0.060876242 1.666847857
O -2.417860168 1.441773331 2.287320363
C -3.975055325 -0.142275042 0.834359475
C -2.913612752 -0.439541018 -2.405857969
C -1.772886834 -1.668048192 -0.205494677
H 3.744945907 -1.535513819 -1.442295878
H 4.882164380 -1.313010870 1.686116733
H 5.841638049 0.910274744 -0.600376345
H 1.430097960 2.596675805 -0.887818788
H 2.534427470 2.814026075 2.225134994
H 0.321015676 -1.173720197 3.330813976
H -5.555504620 -1.082987264 1.750086551
H -4.971066905 0.761654058 -0.945881285
H -2.091093148 1.452206339 -2.660736613
H -1.746034714 -3.712710108 -0.098187070

