11

O 0.025077459 3.417923396 1.881740690
C 0.592313772 2.005500838 -0.076671329
C 2.142985765 -1.758923477 0.137193077
O 0.091595781 -2.005446546 -1.504813820
C -1.255471468 0.101271651 -0.839411110
N -3.617089626 0.406078504 -0.759927434
H -1.574990557 2.860809893 2.603563365
H 2.619783149 0.810420935 -0.143599098
H 3.882632883 -2.511163732 -0.659534052
H 1.749656072 -2.366335424 2.062861963
H -4.577842828 -1.122013737 -1.409657265

