11

C 2.702419361 0.380128633 -0.053987794
C 0.639756840 1.745609903 1.438692321
C -1.949925599 0.717747821 0.894795997
O -3.368551561 -0.174011443 2.414728551
C -2.732431651 0.856009368 -1.804573648
N -3.299241906 0.991157214 -3.892646995
H 0.624819858 3.753410122 0.937649033
H 0.935563569 1.588364035 3.470950529
H 4.540625466 1.199175941 0.380470069
H 2.764530633 -1.622910723 0.429348988
H 2.400025027 0.546304478 -2.087012096

