13

C 2.832712783 0.370345880 -0.510632912
C 0.675867314 0.657859150 1.364522876
C -1.872179129 -0.316971303 0.493224225
O -3.716669028 -0.569909765 2.127520170
C -2.565948669 0.582615603 -2.091195534
N -3.121255670 1.343165948 -4.042724036
H 4.565723901 1.149845189 0.282057158
H 3.188871299 -1.615625772 -0.949791581
H 2.445979368 1.359120603 -2.277833314
H 0.306381089 2.649522733 1.790431618
H 1.068544447 -0.268144767 3.163379461
H -1.165261329 -2.823146763 -0.273328494
H -2.537157180 -2.637145556 0.938976017

