11

C 3.550382483 0.255581547 1.809874972
C 1.224125202 0.628158324 0.950766945
C -0.565670939 2.663031270 1.469649588
H -0.163471873 4.227676502 2.718526196
C -2.668182002 2.175777124 0.145736605
H -4.363635758 3.313076610 0.112843087
C -2.422115718 -0.210207786 -1.341353908
N -0.103184092 -0.958028803 -0.745750576
H 0.669684886 -2.547410701 -1.447064885
H 4.659592966 -1.369733437 1.246447214
H 4.400366818 1.583332394 3.109930692

