12

O 1.383774688 -0.614811699 1.487373103
C 3.470100946 0.713199099 0.656502515
C 3.848164259 1.372054096 -1.711225316
O 4.288020635 2.076291679 -3.743630657
N -0.387234533 -0.694538450 -0.532755973
C -2.626013897 -2.027502976 0.315645547
C -2.651848608 0.758919001 0.118717641
H 4.862847883 1.146664364 2.077477653
H -2.514674428 -2.829740717 2.194462641
H -3.514694797 -3.197640346 -1.106400669
H -3.542879212 1.690333600 -1.468930113
H -2.552865623 1.824183468 1.860984278

