10

C -1.774528458 -0.293538907 -0.240877115
C -3.812087895 -1.996875637 0.733665305
H -3.040179522 -3.789116063 1.410959608
H -4.824874630 -1.117890563 2.300699529
H -5.191890492 -2.443885287 -0.736893997
C -1.294438112 1.975994125 0.704934986
O 0.516404853 3.616648507 -0.080232102
H 1.434359992 2.881160353 -1.462940191
H -2.360042429 2.760674836 2.270314491
H -0.638327961 -0.977875878 -1.813412842

