12

C -2.439342933 1.301514608 1.527899451
C -0.809713875 -1.001593378 1.995024423
N 1.802204725 -0.658710887 -2.394831002
C 2.932594522 -0.273300242 -0.333144788
O 1.830889766 -0.391091445 1.926988273
H -4.428614067 0.799714994 1.746016799
H -2.156666361 2.018939833 -0.380918274
H -1.997871919 2.792127154 2.882273912
H -1.190059600 -2.475256574 0.604569364
H -1.108251183 -1.757057430 3.887742948
H 3.017211601 -0.497237002 -3.864775651
H 4.930086663 0.190559775 -0.101681420

