12

C -2.451305505 1.287877815 1.643979223
C -1.119564293 -1.169088081 1.436393715
N 1.601436348 -1.021222643 -1.721823335
C 3.170359183 0.037602866 -0.190904102
O 2.517849545 0.388661257 2.058281380
H -4.448435158 0.874021746 2.020713530
H -2.373482066 2.320577577 -0.134641153
H -1.702842075 2.461284241 3.151753620
H -1.883743025 -2.468635106 0.068221060
H -0.516221493 -2.075504892 3.162247874
H 2.149888348 -1.291074910 -3.535834313
H 5.056058301 0.655498239 -0.794061595

