13

C 2.758868333 0.675121628 0.472903868
C 1.166158155 -1.679304459 0.502134492
C -0.985435331 -1.651304595 2.151046259
C -1.634862976 -1.512350444 -0.746324089
C -2.200899993 0.792949642 -1.643676489
N -2.591480475 2.877538939 -2.446105299
H 3.552772136 1.047307478 -1.396280121
H 4.360651900 0.323195040 1.728749842
H 1.836571114 2.413599705 1.169644001
H -1.315540797 3.759773737 -3.578798616
H -1.514300283 -0.001947476 3.288163670
H -1.754433110 -3.419053698 2.859416295
H -2.414511970 -3.131422585 -1.719187053

