11

O 4.300104923 -2.518776834 0.044957435
C 2.251556956 -1.489791933 0.036196173
C 1.977426443 1.268240650 -0.043195190
C -0.316509000 2.430701802 -0.280375944
N -2.474573967 1.115206566 -0.478226943
C -2.172567084 -1.481011453 -0.163455471
N -0.013286891 -2.791632840 0.108064461
H 3.693952592 2.376637361 0.104119563
H -0.491402681 4.472608006 -0.320089275
H -2.936935828 -0.832755098 1.809423290
H -3.801795369 -2.574440531 -0.813542290

