15

C 1.715866559 2.421863666 1.514685617
C 2.087408863 0.069586500 -0.034030415
C 0.626235849 -2.309264505 0.376305944
O -1.642425244 -2.179336839 1.773862367
C -3.299413021 -0.773609089 0.393849859
C -2.406921658 0.015189316 -1.817700253
C 0.253344583 -0.840650071 -2.052766706
H 2.672077578 2.250688834 3.334703675
H 2.490700247 4.064514468 0.535850532
H 4.040081991 -0.315447069 -0.527390153
H 1.544030304 -4.127806857 0.540552095
H -0.275735117 2.790186405 1.884200849
H -5.116342492 -0.477388377 1.275573751
H -3.444028262 1.096113850 -3.198640503
H 0.984438085 -1.465250570 -3.857871424

