15

C 1.583404298 2.356060209 0.948960234
C 2.429433002 -0.161807913 -0.033616678
C 0.740615794 -2.418027938 0.408045954
O -1.456928613 -2.226488869 1.942444948
C -3.067694444 -0.508460917 0.802827524
C -1.745188287 0.728477913 -1.165018480
C 0.461089452 -0.906871725 -1.945759169
H 1.688865491 2.626547480 2.995380219
H 2.432282709 3.941196705 -0.055405088
H 4.400151711 -0.626484499 -0.395427913
H 1.546536119 -4.293778196 0.431524970
H -1.842831626 1.639961004 1.163114203
H -5.057523444 -0.568654042 1.232618424
H -2.645458593 2.122184699 -2.355382912
H 0.665929773 -1.569229840 -3.869139237

