12

C -0.975082769 3.094169167 1.127989958
C -0.394581788 0.476071106 0.251493559
C -2.054655941 -1.306572573 -0.516490874
O -0.852750762 -3.467329851 -1.182085277
C 2.045452067 -0.690990641 0.039099624
C 1.639741040 -3.054333192 -0.830893132
H -0.330095319 3.393083891 3.065017477
H -0.047442765 4.501282219 -0.062003369
H -3.002786434 3.457870544 1.074432228
H 3.851910188 0.140996813 0.483071804
H -4.084628600 -1.321879638 -0.686573897
H 2.874999846 -4.609032664 -1.278498688

