12

C -0.771453459 3.086771853 1.067752009
C -0.045615910 0.429041548 0.382985446
C -1.740001102 -1.477091991 -0.383846140
O -0.504194067 -3.372733639 -1.324681894
C 2.603817458 -0.420449474 -0.384567808
C 2.061468706 -2.775405535 -1.284091068
H 0.767295722 3.978201794 2.101581979
H -1.090166447 4.187476150 -0.644682430
H -2.483957515 3.156928748 2.215089796
H 1.020422042 -0.606135777 2.016541733
H -3.774672603 -1.638395366 -0.305408466
H 3.209317096 -4.259696286 -2.077379066

