26

C     4.13959  -1.30809   1.10296
N     2.96464  -0.65859   0.55921
C     2.10472   0.02989   1.35143
O     2.30211   0.10676   2.57771
C     0.91414   0.60853   0.67127
C    -0.02211   1.51692   1.30766
C     0.08473   1.83665   2.78594
O    -0.92859   2.05886   0.63855
N     0.83002   0.43211  -0.67712
C     0.05074   0.13094  -1.64934
C    -1.26695  -0.45277  -1.80417
Cl   -1.46929  -1.47418  -3.23066
C    -2.32907  -0.28848  -0.98485
O    -2.85399   0.16289   0.04282
C    -2.59109  -0.45284   1.36415
H     4.85357  -0.58757   1.53820
H     3.87541  -2.02844   1.89975
H     4.65063  -1.85837   0.30014
H     2.81662  -0.68135  -0.43740
H    -0.02969   0.91896   3.38952
H    -0.72110   2.54432   3.04649
H     1.05711   2.26670   3.05843
H     0.51093   0.45673  -2.70996
H    -2.95359   0.25165   2.12424
H    -3.14797  -1.40171   1.41333
H    -1.51375  -0.62317   1.45149
26

C     4.14018  -1.30879   1.10340
N     2.96522  -0.65930   0.55991
C     2.10602   0.02945   1.35278
O     2.30353   0.10598   2.57903
C     0.91831   0.61231   0.67439
C    -0.02068   1.51947   1.30867
C     0.08413   1.83665   2.78710
O    -0.92590   2.06049   0.63855
N     0.82962   0.43591  -0.67175
C     0.07770   0.14326  -1.65242
C    -1.29926  -0.46797  -1.81251
Cl   -1.46842  -1.47844  -3.23809
C    -2.33258  -0.29023  -0.98202
O    -2.85737   0.16510   0.04744
C    -2.59189  -0.45299   1.36474
H     4.85375  -0.58775   1.53827
H     3.87563  -2.02867   1.89987
H     4.65074  -1.85855   0.30021
H     2.81724  -0.68149  -0.43726
H    -0.02978   0.91864   3.38937
H    -0.72142   2.54408   3.04698
H     1.05687   2.26669   3.05902
H     0.51135   0.45925  -2.71206
H    -2.95313   0.25107   2.12527
H    -3.14818  -1.40182   1.41387
H    -1.51406  -0.62358   1.45160
26

C     4.14077  -1.30950   1.10384
N     2.96580  -0.66002   0.56062
C     2.10733   0.02902   1.35413
O     2.30496   0.10521   2.58034
C     0.92248   0.61609   0.67752
C    -0.01926   1.52201   1.30968
C     0.08353   1.83666   2.78826
O    -0.92321   2.06213   0.63854
N     0.82922   0.43971  -0.66638
C     0.10466   0.15559  -1.65551
C    -1.33157  -0.48317  -1.82084
Cl   -1.46754  -1.48270  -3.24552
C    -2.33609  -0.29198  -0.97919
O    -2.86076   0.16732   0.05207
C    -2.59270  -0.45315   1.36534
H     4.85392  -0.58794   1.53834
H     3.87586  -2.02889   1.89998
H     4.65085  -1.85873   0.30029
H     2.81786  -0.68162  -0.43713
H    -0.02986   0.91831   3.38921
H    -0.72174   2.54384   3.04748
H     1.05664   2.26668   3.05960
H     0.51177   0.46176  -2.71415
H    -2.95268   0.25049   2.12631
H    -3.14838  -1.40193   1.41441
H    -1.51438  -0.62400   1.45171
26

C     4.14136  -1.31020   1.10428
N     2.96638  -0.66074   0.56132
C     2.10863   0.02858   1.35548
O     2.30638   0.10444   2.58166
C     0.92665   0.61986   0.68064
C    -0.01784   1.52456   1.31069
C     0.08294   1.83666   2.78941
O    -0.92052   2.06376   0.63854
N     0.82882   0.44351  -0.66100
C     0.13162   0.16791  -1.65859
C    -1.36388  -0.49837  -1.82917
Cl   -1.46667  -1.48696  -3.25296
C    -2.33960  -0.29373  -0.97636
O    -2.86414   0.16954   0.05669
C    -2.59351  -0.45331   1.36594
H     4.85410  -0.58812   1.53841
H     3.87609  -2.02912   1.90009
H     4.65095  -1.85891   0.30037
H     2.81848  -0.68176  -0.43699
H    -0.02995   0.91798   3.38905
H    -0.72206   2.54360   3.04798
H     1.05640   2.26668   3.06019
H     0.51220   0.46428  -2.71624
H    -2.95222   0.24992   2.12735
H    -3.14859  -1.40203   1.41495
H    -1.51470  -0.62441   1.45181
26

C     4.14195  -1.31091   1.10472
N     2.96695  -0.66146   0.56203
C     2.10993   0.02814   1.35683
O     2.30781   0.10366   2.58297
C     0.93082   0.62364   0.68376
C    -0.01641   1.52711   1.31170
C     0.08234   1.83667   2.79057
O    -0.91783   2.06540   0.63853
N     0.82842   0.44731  -0.65563
C     0.15857   0.18024  -1.66168
C    -1.39619  -0.51356  -1.83751
Cl   -1.46580  -1.49123  -3.26039
C    -2.34311  -0.29548  -0.97353
O    -2.86752   0.17175   0.06132
C    -2.59431  -0.45346   1.36654
H     4.85428  -0.58830   1.53848
H     3.87631  -2.02935   1.90021
H     4.65106  -1.85909   0.30045
H     2.81910  -0.68190  -0.43686
H    -0.03003   0.91765   3.38890
H    -0.72238   2.54336   3.04848
H     1.05616   2.26667   3.06078
H     0.51262   0.46680  -2.71833
H    -2.95177   0.24934   2.12838
H    -3.14880  -1.40214   1.41549
H    -1.51502  -0.62482   1.45192
26

C     4.14254  -1.31161   1.10516
N     2.96753  -0.66218   0.56274
C     2.11124   0.02770   1.35819
O     2.30923   0.10289   2.58428
C     0.93498   0.62742   0.68689
C    -0.01499   1.52966   1.31271
C     0.08174   1.83667   2.79173
O    -0.91514   2.06703   0.63853
N     0.82802   0.45112  -0.65026
C     0.18553   0.19256  -1.66476
C    -1.42850  -0.52876  -1.84584
Cl   -1.46493  -1.49549  -3.26782
C    -2.34662  -0.29723  -0.97070
O    -2.87090   0.17397   0.06594
C    -2.59512  -0.45362   1.36714
H     4.85445  -0.58849   1.53855
H     3.87654  -2.02957   1.90032
H     4.65117  -1.85928   0.30052
H     2.81973  -0.68204  -0.43672
H    -0.03012   0.91732   3.38874
H    -0.72270   2.54312   3.04898
H     1.05592   2.26667   3.06136
H     0.51304   0.46932  -2.72042
H    -2.95131   0.24876   2.12942
H    -3.14901  -1.40225   1.41602
H    -1.51534  -0.62524   1.45203
26

C     4.14313  -1.31232   1.10560
N     2.96811  -0.66290   0.56344
C     2.11254   0.02726   1.35954
O     2.31066   0.10212   2.58560
C     0.93915   0.63120   0.69001
C    -0.01357   1.53221   1.31372
C     0.08114   1.83668   2.79289
O    -0.91245   2.06866   0.63853
N     0.82763   0.45492  -0.64489
C     0.21249   0.20489  -1.66785
C    -1.46082  -0.54396  -1.85418
Cl   -1.46406  -1.49975  -3.27525
C    -2.35013  -0.29898  -0.96787
O    -2.87429   0.17619   0.07057
C    -2.59593  -0.45377   1.36773
H     4.85463  -0.58867   1.53862
H     3.87676  -2.02980   1.90043
H     4.65128  -1.85946   0.30060
H     2.82035  -0.68218  -0.43659
H    -0.03020   0.91699   3.38859
H    -0.72302   2.54288   3.04947
H     1.05569   2.26666   3.06195
H     0.51347   0.47183  -2.72251
H    -2.95085   0.24819   2.13045
H    -3.14922  -1.40236   1.41656
H    -1.51565  -0.62565   1.45214
26

C     4.14372  -1.31302   1.10604
N     2.96868  -0.66362   0.56415
C     2.11384   0.02683   1.36089
O     2.31208   0.10134   2.58691
C     0.94332   0.63498   0.69313
C    -0.01214   1.53475   1.31472
C     0.08055   1.83668   2.79405
O    -0.90976   2.07030   0.63852
N     0.82723   0.45872  -0.63952
C     0.23945   0.21721  -1.67093
C    -1.49313  -0.55915  -1.86251
Cl   -1.46318  -1.50401  -3.28268
C    -2.35364  -0.30073  -0.96504
O    -2.87767   0.17841   0.07519
C    -2.59673  -0.45393   1.36833
H     4.85481  -0.58885   1.53869
H     3.87699  -2.03003   1.90055
H     4.65139  -1.85964   0.30068
H     2.82097  -0.68232  -0.43645
H    -0.03029   0.91667   3.38843
H    -0.72334   2.54264   3.04997
H     1.05545   2.26665   3.06254
H     0.51389   0.47435  -2.72460
H    -2.95040   0.24761   2.13149
H    -3.14942  -1.40247   1.41710
H    -1.51597  -0.62606   1.45225
26

C     4.14431  -1.31373   1.10647
N     2.96926  -0.66434   0.56485
C     2.11515   0.02639   1.36224
O     2.31351   0.10057   2.58823
C     0.94749   0.63876   0.69626
C    -0.01072   1.53730   1.31573
C     0.07995   1.83669   2.79521
O    -0.90707   2.07193   0.63852
N     0.82683   0.46252  -0.63415
C     0.26640   0.22954  -1.67402
C    -1.52544  -0.57435  -1.87084
Cl   -1.46231  -1.50827  -3.29012
C    -2.35715  -0.30248  -0.96221
O    -2.88105   0.18062   0.07982
C    -2.59754  -0.45408   1.36893
H     4.85499  -0.58904   1.53876
H     3.87722  -2.03025   1.90066
H     4.65150  -1.85982   0.30075
H     2.82159  -0.68246  -0.43632
H    -0.03037   0.91634   3.38827
H    -0.72367   2.54240   3.05047
H     1.05521   2.26665   3.06312
H     0.51431   0.47687  -2.72669
H    -2.94994   0.24703   2.13253
H    -3.14963  -1.40258   1.41764
H    -1.51629  -0.62648   1.45235
26

C     4.14490  -1.31443   1.10691
N     2.96984  -0.66506   0.56556
C     2.11645   0.02595   1.36359
O     2.31493   0.09980   2.58954
C     0.95166   0.64254   0.69938
C    -0.00930   1.53985   1.31674
C     0.07935   1.83669   2.79636
O    -0.90438   2.07356   0.63851
N     0.82643   0.46632  -0.62878
C     0.29336   0.24186  -1.67711
C    -1.55775  -0.58955  -1.87918
Cl   -1.46144  -1.51254  -3.29755
C    -2.36066  -0.30424  -0.95938
O    -2.88443   0.18284   0.08444
C    -2.59835  -0.45424   1.36953
H     4.85516  -0.58922   1.53883
H     3.87744  -2.03048   1.90077
H     4.65161  -1.86001   0.30083
H     2.82221  -0.68259  -0.43618
H    -0.03046   0.91601   3.38812
H    -0.72399   2.54216   3.05097
H     1.05497   2.26664   3.06371
H     0.51474   0.47939  -2.72878
H    -2.94949   0.24646   2.13356
H    -3.14984  -1.40269   1.41818
H    -1.51661  -0.62689   1.45246
26

C     4.14549  -1.31514   1.10735
N     2.97041  -0.66578   0.56627
C     2.11775   0.02551   1.36494
O     2.31636   0.09903   2.59086
C     0.95583   0.64632   0.70250
C    -0.00787   1.54240   1.31775
C     0.07875   1.83670   2.79752
O    -0.90169   2.07520   0.63851
N     0.82603   0.47012  -0.62340
C     0.32032   0.25418  -1.68019
C    -1.59006  -0.60474  -1.88751
Cl   -1.46057  -1.51680  -3.30498
C    -2.36417  -0.30599  -0.95655
O    -2.88782   0.18506   0.08907
C    -2.59915  -0.45440   1.37013
H     4.85534  -0.58940   1.53890
H     3.87767  -2.03071   1.90089
H     4.65171  -1.86019   0.30091
H     2.82283  -0.68273  -0.43605
H    -0.03054   0.91568   3.38796
H    -0.72431   2.54192   3.05146
H     1.05473   2.26663   3.06430
H     0.51516   0.48190  -2.73087
H    -2.94903   0.24588   2.13460
H    -3.15005  -1.40279   1.41872
H    -1.51693  -0.62730   1.45257
26

C     4.14608  -1.31585   1.10779
N     2.97099  -0.66649   0.56697
C     2.11905   0.02507   1.36629
O     2.31778   0.09825   2.59217
C     0.96000   0.65010   0.70563
C    -0.00645   1.54494   1.31876
C     0.07816   1.83670   2.79868
O    -0.89900   2.07683   0.63851
N     0.82564   0.47392  -0.61803
C     0.34728   0.26651  -1.68328
C    -1.62237  -0.61994  -1.89584
Cl   -1.45970  -1.52106  -3.31241
C    -2.36768  -0.30774  -0.95372
O    -2.89120   0.18727   0.09369
C    -2.59996  -0.45455   1.37072
H     4.85552  -0.58959   1.53897
H     3.87790  -2.03094   1.90100
H     4.65182  -1.86037   0.30099
H     2.82345  -0.68287  -0.43591
H    -0.03063   0.91535   3.38780
H    -0.72463   2.54168   3.05196
H     1.05450   2.26663   3.06488
H     0.51558   0.48442  -2.73296
H    -2.94858   0.24531   2.13563
H    -3.15026  -1.40290   1.41925
H    -1.51724  -0.62772   1.45268
26

C     4.14667  -1.31655   1.10823
N     2.97157  -0.66721   0.56768
C     2.12036   0.02463   1.36764
O     2.31921   0.09748   2.59349
C     0.96417   0.65388   0.70875
C    -0.00503   1.54749   1.31977
C     0.07756   1.83671   2.79984
O    -0.89631   2.07847   0.63850
N     0.82524   0.47772  -0.61266
C     0.37423   0.27883  -1.68636
C    -1.65468  -0.63514  -1.90418
Cl   -1.45882  -1.52532  -3.31984
C    -2.37119  -0.30949  -0.95089
O    -2.89458   0.18949   0.09832
C    -2.60077  -0.45471   1.37132
H     4.85570  -0.58977   1.53904
H     3.87812  -2.03116   1.90111
H     4.65193  -1.86055   0.30106
H     2.82407  -0.68301  -0.43578
H    -0.03071   0.91502   3.38765
H    -0.72495   2.54143   3.05246
H     1.05426   2.26662   3.06547
H     0.51601   0.48694  -2.73505
H    -2.94812   0.24473   2.13667
H    -3.15046  -1.40301   1.41979
H    -1.51756  -0.62813   1.45279
26

C     4.14726  -1.31726   1.10867
N     2.97214  -0.66793   0.56838
C     2.12166   0.02420   1.36899
O     2.32063   0.09671   2.59480
C     0.96834   0.65766   0.71187
C    -0.00360   1.55004   1.32078
C     0.07696   1.83671   2.80100
O    -0.89362   2.08010   0.63850
N     0.82484   0.48152  -0.60729
C     0.40119   0.29116  -1.68945
C    -1.68699  -0.65033  -1.91251
Cl   -1.45795  -1.52959  -3.32727
C    -2.37470  -0.31124  -0.94806
O    -2.89796   0.19171   0.10294
C    -2.60157  -0.45486   1.37192
H     4.85587  -0.58995   1.53911
H     3.87835  -2.03139   1.90122
H     4.65204  -1.86073   0.30114
H     2.82470  -0.68315  -0.43564
H    -0.03080   0.91470   3.38749
H    -0.72527   2.54119   3.05296
H     1.05402   2.26662   3.06606
H     0.51643   0.48945  -2.73714
H    -2.94767   0.24415   2.13770
H    -3.15067  -1.40312   1.42033
H    -1.51788  -0.62854   1.45289
26

C     4.14785  -1.31796   1.10911
N     2.97272  -0.66865   0.56909
C     2.12296   0.02376   1.37034
O     2.32206   0.09593   2.59612
C     0.97250   0.66144   0.71500
C    -0.00218   1.55259   1.32179
C     0.07637   1.83672   2.80216
O    -0.89093   2.08173   0.63849
N     0.82444   0.48532  -0.60192
C     0.42815   0.30348  -1.69253
C    -1.71930  -0.66553  -1.92085
Cl   -1.45708  -1.53385  -3.33471
C    -2.37820  -0.31299  -0.94523
O    -2.90135   0.19393   0.10757
C    -2.60238  -0.45502   1.37252
H     4.85605  -0.59014   1.53918
H     3.87857  -2.03162   1.90134
H     4.65215  -1.86092   0.30122
H     2.82532  -0.68329  -0.43551
H    -0.03088   0.91437   3.38733
H    -0.72559   2.54095   3.05346
H     1.05378   2.26661   3.06664
H     0.51685   0.49197  -2.73923
H    -2.94721   0.24358   2.13874
H    -3.15088  -1.40323   1.42087
H    -1.51820  -0.62896   1.45300
26

C     4.14844  -1.31867   1.10955
N     2.97330  -0.66937   0.56980
C     2.12427   0.02332   1.37169
O     2.32349   0.09516   2.59743
C     0.97667   0.66522   0.71812
C    -0.00076   1.55513   1.32280
C     0.07577   1.83672   2.80332
O    -0.88824   2.08337   0.63849
N     0.82404   0.48912  -0.59655
C     0.45511   0.31581  -1.69562
C    -1.75161  -0.68073  -1.92918
Cl   -1.45621  -1.53811  -3.34214
C    -2.38171  -0.31474  -0.94240
O    -2.90473   0.19614   0.11219
C    -2.60319  -0.45518   1.37312
H     4.85623  -0.59032   1.53925
H     3.87880  -2.03184   1.90145
H     4.65226  -1.86110   0.30129
H     2.82594  -0.68343  -0.43537
H    -0.03097   0.91404   3.38718
H    -0.72591   2.54071   3.05395
H     1.05354   2.26660   3.06723
H     0.51728   0.49449  -2.74132
H    -2.94675   0.24300   2.13978
H    -3.15109  -1.40334   1.42141
H    -1.51852  -0.62937   1.45311
26

C     4.14903  -1.31937   1.10999
N     2.97387  -0.67009   0.57050
C     2.12557   0.02288   1.37304
O     2.32491   0.09439   2.59874
C     0.98084   0.66900   0.72124
C     0.00067   1.55768   1.32380
C     0.07517   1.83673   2.80447
O    -0.88556   2.08500   0.63849
N     0.82364   0.49292  -0.59117
C     0.48206   0.32813  -1.69870
C    -1.78392  -0.69592  -1.93751
Cl   -1.45534  -1.54237  -3.34957
C    -2.38522  -0.31649  -0.93957
O    -2.90811   0.19836   0.11681
C    -2.60399  -0.45533   1.37371
H     4.85640  -0.59050   1.53932
H     3.87903  -2.03207   1.90156
H     4.65237  -1.86128   0.30137
H     2.82656  -0.68357  -0.43524
H    -0.03105   0.91371   3.38702
H    -0.72623   2.54047   3.05445
H     1.05331   2.26660   3.06782
H     0.51770   0.49701  -2.74341
H    -2.94630   0.24242   2.14081
H    -3.15130  -1.40345   1.42194
H    -1.51883  -0.62978   1.45322
26

C     4.14962  -1.32008   1.11043
N     2.97445  -0.67081   0.57121
C     2.12687   0.02244   1.37439
O     2.32634   0.09361   2.60006
C     0.98501   0.67278   0.72437
C     0.00209   1.56023   1.32481
C     0.07457   1.83673   2.80563
O    -0.88287   2.08664   0.63848
N     0.82325   0.49672  -0.58580
C     0.50902   0.34046  -1.70179
C    -1.81623  -0.71112  -1.94585
Cl   -1.45446  -1.54664  -3.35700
C    -2.38873  -0.31824  -0.93674
O    -2.91149   0.20058   0.12144
C    -2.60480  -0.45549   1.37431
H     4.85658  -0.59069   1.53939
H     3.87925  -2.03230   1.90168
H     4.65247  -1.86146   0.30145
H     2.82718  -0.68370  -0.43510
H    -0.03114   0.91338   3.38686
H    -0.72655   2.54023   3.05495
H     1.05307   2.26659   3.06840
H     0.51812   0.49952  -2.74550
H    -2.94584   0.24185   2.14185
H    -3.15150  -1.40355   1.42248
H    -1.51915  -0.63020   1.45333
26

C     4.15021  -1.32078   1.11087
N     2.97503  -0.67153   0.57191
C     2.12818   0.02201   1.37575
O     2.32776   0.09284   2.60137
C     0.98918   0.67656   0.72749
C     0.00351   1.56278   1.32582
C     0.07398   1.83674   2.80679
O    -0.88018   2.08827   0.63848
N     0.82285   0.50053  -0.58043
C     0.53598   0.35278  -1.70487
C    -1.84854  -0.72632  -1.95418
Cl   -1.45359  -1.55090  -3.36443
C    -2.39224  -0.31999  -0.93391
O    -2.91488   0.20279   0.12606
C    -2.60561  -0.45564   1.37491
H     4.85676  -0.59087   1.53946
H     3.87948  -2.03252   1.90179
H     4.65258  -1.86164   0.30153
H     2.82780  -0.68384  -0.43496
H    -0.03122   0.91305   3.38671
H    -0.72687   2.53999   3.05545
H     1.05283   2.26659   3.06899
H     0.51855   0.50204  -2.74759
H    -2.94539   0.24127   2.14288
H    -3.15171  -1.40366   1.42302
H    -1.51947  -0.63061   1.45343
26

C     4.15080  -1.32149   1.11131
N     2.97560  -0.67225   0.57262
C     2.12948   0.02157   1.37710
O     2.32919   0.09207   2.60269
C     0.99335   0.68034   0.73062
C     0.00494   1.56532   1.32683
C     0.07338   1.83674   2.80795
O    -0.87749   2.08990   0.63847
N     0.82245   0.50433  -0.57506
C     0.56294   0.36511  -1.70796
C    -1.88085  -0.74152  -1.96251
Cl   -1.45272  -1.55516  -3.37186
C    -2.39575  -0.32175  -0.93108
O    -2.91826   0.20501   0.13069
C    -2.60641  -0.45580   1.37551
H     4.85694  -0.59106   1.53953
H     3.87971  -2.03275   1.90190
H     4.65269  -1.86183   0.30160
H     2.82842  -0.68398  -0.43483
H    -0.03131   0.91273   3.38655
H    -0.72720   2.53975   3.05594
H     1.05259   2.26658   3.06958
H     0.51897   0.50456  -2.74968
H    -2.94493   0.24069   2.14392
H    -3.15192  -1.40377   1.42356
H    -1.51979  -0.63102   1.45354
26

C     4.15139  -1.32219   1.11175
N     2.97618  -0.67297   0.57333
C     2.13078   0.02113   1.37845
O     2.33061   0.09130   2.60400
C     0.99752   0.68412   0.73374
C     0.00636   1.56787   1.32784
C     0.07278   1.83675   2.80911
O    -0.87480   2.09154   0.63847
N     0.82205   0.50813  -0.56969
C     0.58989   0.37743  -1.71105
C    -1.91316  -0.75671  -1.97085
Cl   -1.45185  -1.55942  -3.37930
C    -2.39926  -0.32350  -0.92825
O    -2.92164   0.20723   0.13531
C    -2.60722  -0.45595   1.37611
H     4.85711  -0.59124   1.53960
H     3.87993  -2.03298   1.90202
H     4.65280  -1.86201   0.30168
H     2.82904  -0.68412  -0.43469
H    -0.03139   0.91240   3.38639
H    -0.72752   2.53951   3.05644
H     1.05236   2.26657   3.07016
H     0.51939   0.50708  -2.75177
H    -2.94448   0.24012   2.14496
H    -3.15213  -1.40388   1.42410
H    -1.52011  -0.63144   1.45365
26

C     4.15080  -1.32149   1.11131
N     2.97560  -0.67225   0.57262
C     2.12948   0.02157   1.37710
O     2.32919   0.09207   2.60269
C     0.99335   0.68034   0.73062
C     0.00494   1.56532   1.32683
C     0.07338   1.83674   2.80795
O    -0.87749   2.08990   0.63847
N     0.82245   0.50433  -0.57506
C     0.56294   0.36511  -1.70796
C    -1.88085  -0.74152  -1.96251
Cl   -1.45272  -1.55516  -3.37186
C    -2.39575  -0.32175  -0.93108
O    -2.91826   0.20501   0.13069
C    -2.60641  -0.45580   1.37551
H     4.85694  -0.59106   1.53953
H     3.87971  -2.03275   1.90190
H     4.65269  -1.86183   0.30160
H     2.82842  -0.68398  -0.43483
H    -0.03131   0.91273   3.38655
H    -0.72720   2.53975   3.05594
H     1.05259   2.26658   3.06958
H     0.51897   0.50456  -2.74968
H    -2.94493   0.24069   2.14392
H    -3.15192  -1.40377   1.42356
H    -1.51979  -0.63102   1.45354
26

C     4.15021  -1.32078   1.11087
N     2.97503  -0.67153   0.57191
C     2.12818   0.02201   1.37575
O     2.32776   0.09284   2.60137
C     0.98918   0.67656   0.72749
C     0.00351   1.56278   1.32582
C     0.07398   1.83674   2.80679
O    -0.88018   2.08827   0.63848
N     0.82285   0.50053  -0.58043
C     0.53598   0.35278  -1.70487
C    -1.84854  -0.72632  -1.95418
Cl   -1.45359  -1.55090  -3.36443
C    -2.39224  -0.31999  -0.93391
O    -2.91488   0.20279   0.12606
C    -2.60561  -0.45564   1.37491
H     4.85676  -0.59087   1.53946
H     3.87948  -2.03252   1.90179
H     4.65258  -1.86164   0.30153
H     2.82780  -0.68384  -0.43496
H    -0.03122   0.91305   3.38671
H    -0.72687   2.53999   3.05545
H     1.05283   2.26659   3.06899
H     0.51855   0.50204  -2.74759
H    -2.94539   0.24127   2.14288
H    -3.15171  -1.40366   1.42302
H    -1.51947  -0.63061   1.45343
26

C     4.14962  -1.32008   1.11043
N     2.97445  -0.67081   0.57121
C     2.12687   0.02244   1.37439
O     2.32634   0.09361   2.60006
C     0.98501   0.67278   0.72437
C     0.00209   1.56023   1.32481
C     0.07457   1.83673   2.80563
O    -0.88287   2.08664   0.63848
N     0.82325   0.49672  -0.58580
C     0.50902   0.34046  -1.70179
C    -1.81623  -0.71112  -1.94585
Cl   -1.45446  -1.54664  -3.35700
C    -2.38873  -0.31824  -0.93674
O    -2.91149   0.20058   0.12144
C    -2.60480  -0.45549   1.37431
H     4.85658  -0.59069   1.53939
H     3.87925  -2.03230   1.90168
H     4.65247  -1.86146   0.30145
H     2.82718  -0.68370  -0.43510
H    -0.03114   0.91338   3.38686
H    -0.72655   2.54023   3.05495
H     1.05307   2.26659   3.06840
H     0.51812   0.49952  -2.74550
H    -2.94584   0.24185   2.14185
H    -3.15150  -1.40355   1.42248
H    -1.51915  -0.63020   1.45333
26

C     4.14903  -1.31937   1.10999
N     2.97387  -0.67009   0.57050
C     2.12557   0.02288   1.37304
O     2.32491   0.09439   2.59874
C     0.98084   0.66900   0.72124
C     0.00067   1.55768   1.32380
C     0.07517   1.83673   2.80447
O    -0.88556   2.08500   0.63849
N     0.82364   0.49292  -0.59117
C     0.48206   0.32813  -1.69870
C    -1.78392  -0.69592  -1.93751
Cl   -1.45534  -1.54237  -3.34957
C    -2.38522  -0.31649  -0.93957
O    -2.90811   0.19836   0.11681
C    -2.60399  -0.45533   1.37371
H     4.85640  -0.59050   1.53932
H     3.87903  -2.03207   1.90156
H     4.65237  -1.86128   0.30137
H     2.82656  -0.68357  -0.43524
H    -0.03105   0.91371   3.38702
H    -0.72623   2.54047   3.05445
H     1.05331   2.26660   3.06782
H     0.51770   0.49701  -2.74341
H    -2.94630   0.24242   2.14081
H    -3.15130  -1.40345   1.42194
H    -1.51883  -0.62978   1.45322
26

C     4.14844  -1.31867   1.10955
N     2.97330  -0.66937   0.56980
C     2.12427   0.02332   1.37169
O     2.32349   0.09516   2.59743
C     0.97667   0.66522   0.71812
C    -0.00076   1.55513   1.32280
C     0.07577   1.83672   2.80332
O    -0.88824   2.08337   0.63849
N     0.82404   0.48912  -0.59655
C     0.45511   0.31581  -1.69562
C    -1.75161  -0.68073  -1.92918
Cl   -1.45621  -1.53811  -3.34214
C    -2.38171  -0.31474  -0.94240
O    -2.90473   0.19614   0.11219
C    -2.60319  -0.45518   1.37312
H     4.85623  -0.59032   1.53925
H     3.87880  -2.03184   1.90145
H     4.65226  -1.86110   0.30129
H     2.82594  -0.68343  -0.43537
H    -0.03097   0.91404   3.38718
H    -0.72591   2.54071   3.05395
H     1.05354   2.26660   3.06723
H     0.51728   0.49449  -2.74132
H    -2.94675   0.24300   2.13978
H    -3.15109  -1.40334   1.42141
H    -1.51852  -0.62937   1.45311
26

C     4.14785  -1.31796   1.10911
N     2.97272  -0.66865   0.56909
C     2.12296   0.02376   1.37034
O     2.32206   0.09593   2.59612
C     0.97250   0.66144   0.71500
C    -0.00218   1.55259   1.32179
C     0.07637   1.83672   2.80216
O    -0.89093   2.08173   0.63849
N     0.82444   0.48532  -0.60192
C     0.42815   0.30348  -1.69253
C    -1.71930  -0.66553  -1.92085
Cl   -1.45708  -1.53385  -3.33471
C    -2.37820  -0.31299  -0.94523
O    -2.90135   0.19393   0.10757
C    -2.60238  -0.45502   1.37252
H     4.85605  -0.59014   1.53918
H     3.87857  -2.03162   1.90134
H     4.65215  -1.86092   0.30122
H     2.82532  -0.68329  -0.43551
H    -0.03088   0.91437   3.38733
H    -0.72559   2.54095   3.05346
H     1.05378   2.26661   3.06664
H     0.51685   0.49197  -2.73923
H    -2.94721   0.24358   2.13874
H    -3.15088  -1.40323   1.42087
H    -1.51820  -0.62896   1.45300
26

C     4.14726  -1.31726   1.10867
N     2.97214  -0.66793   0.56838
C     2.12166   0.02420   1.36899
O     2.32063   0.09671   2.59480
C     0.96834   0.65766   0.71187
C    -0.00360   1.55004   1.32078
C     0.07696   1.83671   2.80100
O    -0.89362   2.08010   0.63850
N     0.82484   0.48152  -0.60729
C     0.40119   0.29116  -1.68945
C    -1.68699  -0.65033  -1.91251
Cl   -1.45795  -1.52959  -3.32727
C    -2.37470  -0.31124  -0.94806
O    -2.89796   0.19171   0.10294
C    -2.60157  -0.45486   1.37192
H     4.85587  -0.58995   1.53911
H     3.87835  -2.03139   1.90122
H     4.65204  -1.86073   0.30114
H     2.82470  -0.68315  -0.43564
H    -0.03080   0.91470   3.38749
H    -0.72527   2.54119   3.05296
H     1.05402   2.26662   3.06606
H     0.51643   0.48945  -2.73714
H    -2.94767   0.24415   2.13770
H    -3.15067  -1.40312   1.42033
H    -1.51788  -0.62854   1.45289
26

C     4.14667  -1.31655   1.10823
N     2.97157  -0.66721   0.56768
C     2.12036   0.02463   1.36764
O     2.31921   0.09748   2.59349
C     0.96417   0.65388   0.70875
C    -0.00503   1.54749   1.31977
C     0.07756   1.83671   2.79984
O    -0.89631   2.07847   0.63850
N     0.82524   0.47772  -0.61266
C     0.37423   0.27883  -1.68636
C    -1.65468  -0.63514  -1.90418
Cl   -1.45882  -1.52532  -3.31984
C    -2.37119  -0.30949  -0.95089
O    -2.89458   0.18949   0.09832
C    -2.60077  -0.45471   1.37132
H     4.85570  -0.58977   1.53904
H     3.87812  -2.03116   1.90111
H     4.65193  -1.86055   0.30106
H     2.82407  -0.68301  -0.43578
H    -0.03071   0.91502   3.38765
H    -0.72495   2.54143   3.05246
H     1.05426   2.26662   3.06547
H     0.51601   0.48694  -2.73505
H    -2.94812   0.24473   2.13667
H    -3.15046  -1.40301   1.41979
H    -1.51756  -0.62813   1.45279
26

C     4.14608  -1.31585   1.10779
N     2.97099  -0.66649   0.56697
C     2.11905   0.02507   1.36629
O     2.31778   0.09825   2.59217
C     0.96000   0.65010   0.70563
C    -0.00645   1.54494   1.31876
C     0.07816   1.83670   2.79868
O    -0.89900   2.07683   0.63851
N     0.82564   0.47392  -0.61803
C     0.34728   0.26651  -1.68328
C    -1.62237  -0.61994  -1.89584
Cl   -1.45970  -1.52106  -3.31241
C    -2.36768  -0.30774  -0.95372
O    -2.89120   0.18727   0.09369
C    -2.59996  -0.45455   1.37072
H     4.85552  -0.58959   1.53897
H     3.87790  -2.03094   1.90100
H     4.65182  -1.86037   0.30099
H     2.82345  -0.68287  -0.43591
H    -0.03063   0.91535   3.38780
H    -0.72463   2.54168   3.05196
H     1.05450   2.26663   3.06488
H     0.51558   0.48442  -2.73296
H    -2.94858   0.24531   2.13563
H    -3.15026  -1.40290   1.41925
H    -1.51724  -0.62772   1.45268
26

C     4.14549  -1.31514   1.10735
N     2.97041  -0.66578   0.56627
C     2.11775   0.02551   1.36494
O     2.31636   0.09903   2.59086
C     0.95583   0.64632   0.70250
C    -0.00787   1.54240   1.31775
C     0.07875   1.83670   2.79752
O    -0.90169   2.07520   0.63851
N     0.82603   0.47012  -0.62340
C     0.32032   0.25418  -1.68019
C    -1.59006  -0.60474  -1.88751
Cl   -1.46057  -1.51680  -3.30498
C    -2.36417  -0.30599  -0.95655
O    -2.88782   0.18506   0.08907
C    -2.59915  -0.45440   1.37013
H     4.85534  -0.58940   1.53890
H     3.87767  -2.03071   1.90089
H     4.65171  -1.86019   0.30091
H     2.82283  -0.68273  -0.43605
H    -0.03054   0.91568   3.38796
H    -0.72431   2.54192   3.05146
H     1.05473   2.26663   3.06430
H     0.51516   0.48190  -2.73087
H    -2.94903   0.24588   2.13460
H    -3.15005  -1.40279   1.41872
H    -1.51693  -0.62730   1.45257
26

C     4.14490  -1.31443   1.10691
N     2.96984  -0.66506   0.56556
C     2.11645   0.02595   1.36359
O     2.31493   0.09980   2.58954
C     0.95166   0.64254   0.69938
C    -0.00930   1.53985   1.31674
C     0.07935   1.83669   2.79636
O    -0.90438   2.07356   0.63851
N     0.82643   0.46632  -0.62878
C     0.29336   0.24186  -1.67711
C    -1.55775  -0.58955  -1.87918
Cl   -1.46144  -1.51254  -3.29755
C    -2.36066  -0.30424  -0.95938
O    -2.88443   0.18284   0.08444
C    -2.59835  -0.45424   1.36953
H     4.85516  -0.58922   1.53883
H     3.87744  -2.03048   1.90077
H     4.65161  -1.86001   0.30083
H     2.82221  -0.68259  -0.43618
H    -0.03046   0.91601   3.38812
H    -0.72399   2.54216   3.05097
H     1.05497   2.26664   3.06371
H     0.51474   0.47939  -2.72878
H    -2.94949   0.24646   2.13356
H    -3.14984  -1.40269   1.41818
H    -1.51661  -0.62689   1.45246
26

C     4.14431  -1.31373   1.10647
N     2.96926  -0.66434   0.56485
C     2.11515   0.02639   1.36224
O     2.31351   0.10057   2.58823
C     0.94749   0.63876   0.69626
C    -0.01072   1.53730   1.31573
C     0.07995   1.83669   2.79521
O    -0.90707   2.07193   0.63852
N     0.82683   0.46252  -0.63415
C     0.26640   0.22954  -1.67402
C    -1.52544  -0.57435  -1.87084
Cl   -1.46231  -1.50827  -3.29012
C    -2.35715  -0.30248  -0.96221
O    -2.88105   0.18062   0.07982
C    -2.59754  -0.45408   1.36893
H     4.85499  -0.58904   1.53876
H     3.87722  -2.03025   1.90066
H     4.65150  -1.85982   0.30075
H     2.82159  -0.68246  -0.43632
H    -0.03037   0.91634   3.38827
H    -0.72367   2.54240   3.05047
H     1.05521   2.26665   3.06312
H     0.51431   0.47687  -2.72669
H    -2.94994   0.24703   2.13253
H    -3.14963  -1.40258   1.41764
H    -1.51629  -0.62648   1.45235
26

C     4.14372  -1.31302   1.10604
N     2.96868  -0.66362   0.56415
C     2.11384   0.02683   1.36089
O     2.31208   0.10134   2.58691
C     0.94332   0.63498   0.69313
C    -0.01214   1.53475   1.31472
C     0.08055   1.83668   2.79405
O    -0.90976   2.07030   0.63852
N     0.82723   0.45872  -0.63952
C     0.23945   0.21721  -1.67093
C    -1.49313  -0.55915  -1.86251
Cl   -1.46318  -1.50401  -3.28268
C    -2.35364  -0.30073  -0.96504
O    -2.87767   0.17841   0.07519
C    -2.59673  -0.45393   1.36833
H     4.85481  -0.58885   1.53869
H     3.87699  -2.03003   1.90055
H     4.65139  -1.85964   0.30068
H     2.82097  -0.68232  -0.43645
H    -0.03029   0.91667   3.38843
H    -0.72334   2.54264   3.04997
H     1.05545   2.26665   3.06254
H     0.51389   0.47435  -2.72460
H    -2.95040   0.24761   2.13149
H    -3.14942  -1.40247   1.41710
H    -1.51597  -0.62606   1.45225
26

C     4.14313  -1.31232   1.10560
N     2.96811  -0.66290   0.56344
C     2.11254   0.02726   1.35954
O     2.31066   0.10212   2.58560
C     0.93915   0.63120   0.69001
C    -0.01357   1.53221   1.31372
C     0.08114   1.83668   2.79289
O    -0.91245   2.06866   0.63853
N     0.82763   0.45492  -0.64489
C     0.21249   0.20489  -1.66785
C    -1.46082  -0.54396  -1.85418
Cl   -1.46406  -1.49975  -3.27525
C    -2.35013  -0.29898  -0.96787
O    -2.87429   0.17619   0.07057
C    -2.59593  -0.45377   1.36773
H     4.85463  -0.58867   1.53862
H     3.87676  -2.02980   1.90043
H     4.65128  -1.85946   0.30060
H     2.82035  -0.68218  -0.43659
H    -0.03020   0.91699   3.38859
H    -0.72302   2.54288   3.04947
H     1.05569   2.26666   3.06195
H     0.51347   0.47183  -2.72251
H    -2.95085   0.24819   2.13045
H    -3.14922  -1.40236   1.41656
H    -1.51565  -0.62565   1.45214
26

C     4.14254  -1.31161   1.10516
N     2.96753  -0.66218   0.56274
C     2.11124   0.02770   1.35819
O     2.30923   0.10289   2.58428
C     0.93498   0.62742   0.68689
C    -0.01499   1.52966   1.31271
C     0.08174   1.83667   2.79173
O    -0.91514   2.06703   0.63853
N     0.82802   0.45112  -0.65026
C     0.18553   0.19256  -1.66476
C    -1.42850  -0.52876  -1.84584
Cl   -1.46493  -1.49549  -3.26782
C    -2.34662  -0.29723  -0.97070
O    -2.87090   0.17397   0.06594
C    -2.59512  -0.45362   1.36714
H     4.85445  -0.58849   1.53855
H     3.87654  -2.02957   1.90032
H     4.65117  -1.85928   0.30052
H     2.81973  -0.68204  -0.43672
H    -0.03012   0.91732   3.38874
H    -0.72270   2.54312   3.04898
H     1.05592   2.26667   3.06136
H     0.51304   0.46932  -2.72042
H    -2.95131   0.24876   2.12942
H    -3.14901  -1.40225   1.41602
H    -1.51534  -0.62524   1.45203
26

C     4.14195  -1.31091   1.10472
N     2.96695  -0.66146   0.56203
C     2.10993   0.02814   1.35683
O     2.30781   0.10366   2.58297
C     0.93082   0.62364   0.68376
C    -0.01641   1.52711   1.31170
C     0.08234   1.83667   2.79057
O    -0.91783   2.06540   0.63853
N     0.82842   0.44731  -0.65563
C     0.15857   0.18024  -1.66168
C    -1.39619  -0.51356  -1.83751
Cl   -1.46580  -1.49123  -3.26039
C    -2.34311  -0.29548  -0.97353
O    -2.86752   0.17175   0.06132
C    -2.59431  -0.45346   1.36654
H     4.85428  -0.58830   1.53848
H     3.87631  -2.02935   1.90021
H     4.65106  -1.85909   0.30045
H     2.81910  -0.68190  -0.43686
H    -0.03003   0.91765   3.38890
H    -0.72238   2.54336   3.04848
H     1.05616   2.26667   3.06078
H     0.51262   0.46680  -2.71833
H    -2.95177   0.24934   2.12838
H    -3.14880  -1.40214   1.41549
H    -1.51502  -0.62482   1.45192
26

C     4.14136  -1.31020   1.10428
N     2.96638  -0.66074   0.56132
C     2.10863   0.02858   1.35548
O     2.30638   0.10444   2.58166
C     0.92665   0.61986   0.68064
C    -0.01784   1.52456   1.31069
C     0.08294   1.83666   2.78941
O    -0.92052   2.06376   0.63854
N     0.82882   0.44351  -0.66100
C     0.13162   0.16791  -1.65859
C    -1.36388  -0.49837  -1.82917
Cl   -1.46667  -1.48696  -3.25296
C    -2.33960  -0.29373  -0.97636
O    -2.86414   0.16954   0.05669
C    -2.59351  -0.45331   1.36594
H     4.85410  -0.58812   1.53841
H     3.87609  -2.02912   1.90009
H     4.65095  -1.85891   0.30037
H     2.81848  -0.68176  -0.43699
H    -0.02995   0.91798   3.38905
H    -0.72206   2.54360   3.04798
H     1.05640   2.26668   3.06019
H     0.51220   0.46428  -2.71624
H    -2.95222   0.24992   2.12735
H    -3.14859  -1.40203   1.41495
H    -1.51470  -0.62441   1.45181
26

C     4.14077  -1.30950   1.10384
N     2.96580  -0.66002   0.56062
C     2.10733   0.02902   1.35413
O     2.30496   0.10521   2.58034
C     0.92248   0.61609   0.67752
C    -0.01926   1.52201   1.30968
C     0.08353   1.83666   2.78826
O    -0.92321   2.06213   0.63854
N     0.82922   0.43971  -0.66638
C     0.10466   0.15559  -1.65551
C    -1.33157  -0.48317  -1.82084
Cl   -1.46754  -1.48270  -3.24552
C    -2.33609  -0.29198  -0.97919
O    -2.86076   0.16732   0.05207
C    -2.59270  -0.45315   1.36534
H     4.85392  -0.58794   1.53834
H     3.87586  -2.02889   1.89998
H     4.65085  -1.85873   0.30029
H     2.81786  -0.68162  -0.43713
H    -0.02986   0.91831   3.38921
H    -0.72174   2.54384   3.04748
H     1.05664   2.26668   3.05960
H     0.51177   0.46176  -2.71415
H    -2.95268   0.25049   2.12631
H    -3.14838  -1.40193   1.41441
H    -1.51438  -0.62400   1.45171
26

C     4.14018  -1.30879   1.10340
N     2.96522  -0.65930   0.55991
C     2.10602   0.02945   1.35278
O     2.30353   0.10598   2.57903
C     0.91831   0.61231   0.67439
C    -0.02068   1.51947   1.30867
C     0.08413   1.83665   2.78710
O    -0.92590   2.06049   0.63855
N     0.82962   0.43591  -0.67175
C     0.07770   0.14326  -1.65242
C    -1.29926  -0.46797  -1.81251
Cl   -1.46842  -1.47844  -3.23809
C    -2.33258  -0.29023  -0.98202
O    -2.85737   0.16510   0.04744
C    -2.59189  -0.45299   1.36474
H     4.85375  -0.58775   1.53827
H     3.87563  -2.02867   1.89987
H     4.65074  -1.85855   0.30021
H     2.81724  -0.68149  -0.43726
H    -0.02978   0.91864   3.38937
H    -0.72142   2.54408   3.04698
H     1.05687   2.26669   3.05902
H     0.51135   0.45925  -2.71206
H    -2.95313   0.25107   2.12527
H    -3.14818  -1.40182   1.41387
H    -1.51406  -0.62358   1.45160
