18

C -4.024865066 0.747725813 -1.676383434
C -2.681640612 -0.371659145 0.600167417
N 0.028140025 0.164687874 0.637436048
C 1.390339899 0.382768127 3.571441043
C 1.576729747 -0.952820812 -1.221682334
O 0.736317668 -2.515224225 -2.639814737
C 4.277568031 -0.070453563 -1.307471157
H -6.046526691 0.368315596 -1.539221556
H -3.334467894 -0.073225621 -3.432022114
H -3.766225206 2.793511095 -1.749325577
H -2.919587991 -2.419816072 0.680753333
H -3.447157100 0.426506273 2.338083093
H -0.189030986 -0.260721602 4.727974672
H 2.828864073 -1.094401550 3.531521826
H 0.691905381 1.962451120 1.402619661
H 4.732808251 0.379080327 -3.264278023
H 5.490974951 -1.633631536 -0.729679306
H 4.644728702 1.538494559 -0.081623848

