16

C 3.640039424 -1.019082982 0.002550393
N 1.451195864 0.592031561 -0.014079556
C -0.102086142 1.340339182 1.889135963
C -1.670556293 2.745725950 -0.070319109
C -0.094259445 1.243916625 -1.914129311
C -2.816473894 -2.607685727 -1.040739243
C -2.799222207 -2.515694880 1.251833689
H 3.029830191 -2.981123369 0.194600103
H 4.670508988 -0.791970424 -1.764254338
H 4.861424542 -0.517647840 1.580576493
H 0.525205969 1.808636030 3.775500832
H -1.144587101 4.742772833 -0.122903101
H -3.708438439 2.514321540 -0.084313892
H 0.332896516 1.261967553 -3.905533680
H -3.132035877 -3.082512203 -2.970547819
H -3.094400451 -2.842549129 3.214278799

