14

C 1.776831486 3.289432753 -2.991309787
C 0.497364011 2.482129432 -0.998539675
C -2.328585046 2.317927085 -0.867167880
C -3.280340147 -0.384220873 -0.534186420
C -2.770416242 -1.529516546 2.015501496
O -1.834574562 -0.436453943 3.769852894
H -3.356471959 -3.534871932 2.214461821
H -2.474205659 -1.650633270 -1.961210722
H -5.332590542 -0.490289991 -0.809425030
H -3.003972653 3.453012568 0.722607308
H -3.146243915 3.115086035 -2.586775983
H 1.511125146 1.878047201 0.681664634
H 3.822470201 3.366705299 -2.990337220
H 0.825592507 3.920243365 -4.696148528

