19

C 3.081594703 -2.717184868 -0.527419859
C 2.288866726 1.835570939 -1.046311025
C 0.009497423 2.531322972 0.247433803
C -2.467566692 2.054789884 -1.178062901
C -3.178438140 -0.715510045 -0.579977376
C -1.284912853 -1.418995744 1.449313263
O -0.429455550 0.665532874 2.520465550
H 4.401358509 -2.194650612 0.946220264
H 2.569219218 -4.713713192 -0.346351990
H 3.855702604 -2.388541898 -2.389507038
H 4.068920176 2.617204882 -0.409803891
H 2.188993812 1.288291457 -3.007890660
H 0.098472324 4.312750952 1.270943204
H -3.932137981 3.334220019 -0.501347648
H -2.226892212 2.379101885 -3.196847852
H -3.054168427 -1.959216211 -2.221588488
H -5.104709187 -0.838720717 0.148529450
H -1.510305761 -3.016303475 2.716768845
H 0.740503223 -2.127523988 0.136664426

