14

C -3.701225411 -0.161073263 -0.559649195
C -1.003395042 -0.784554817 0.156796038
O -0.128679105 -2.626857773 -1.565480340
C 0.685420673 1.575099178 0.095371322
C 3.306246006 0.968167259 0.706346385
C 5.431389184 0.361646942 1.199372548
H -3.771218826 0.614309674 -2.470608225
H -4.854405929 -1.866833189 -0.513570359
H -4.509332055 1.215548377 0.746253791
H -0.961818403 -1.551318335 2.086423616
H 1.604661997 -3.000775198 -1.168642691
H 0.598475527 2.412912525 -1.791905321
H -0.025988515 2.976802284 1.435500706
H 7.329869900 -0.133073644 1.643791705

