14

C -2.870209579 -0.422142291 -1.224095136
C -1.144853534 0.167383739 0.904691907
O 1.441830268 -2.595355226 0.069913517
C 0.352295141 2.443508457 0.881036542
C 3.010974107 1.676875462 -0.206878901
C 3.404143797 -0.755055607 -0.460341460
H -1.995134556 0.085641538 -3.018927076
H -3.451568099 -2.392231249 -1.269026285
H -4.555831299 0.761033736 -0.994781784
H -1.498504818 -0.789021317 2.682087211
H 1.977491941 -3.670893190 1.443543588
H -0.430755266 3.867183503 -0.387448506
H 0.650844373 3.259778415 2.745743619
H 5.106686747 -1.653345027 -1.158685876

