15

C -4.161643008 -0.631367419 0.453516129
C -1.643618833 -0.266892502 -0.906755828
C -0.520503707 2.309315584 -0.660508206
N 1.827415259 1.997152860 -0.121255675
C 2.463024206 -0.651038637 0.119991392
N 5.037748839 -1.070856073 0.733575959
C 0.430202880 -2.132235340 -0.280698426
H -4.849429467 -2.534164628 0.081416620
H -3.911543085 -0.443703952 2.491351466
H -5.584365424 0.732212937 -0.163242801
H -1.351398521 4.163037173 -0.905585747
H 3.112279452 3.397157234 0.100563533
H 5.190150224 -1.924057195 2.435980846
H 5.839459837 -2.237537739 -0.547546255
H -1.968065987 -0.488620985 -2.956953564

