12

O 0.378527790 -2.380354358 2.004725540
C -1.741012502 -1.294650385 1.554123180
C -1.945833454 1.302608759 1.468637375
C 0.179124513 1.898360888 -1.709200777
C 2.095201129 0.168985962 -1.516421273
C 2.616961183 -1.716187888 -0.158385109
H -3.276411237 -2.478490708 0.829432543
H -0.654701852 2.401997429 2.612122105
H -3.785061826 2.135599921 1.121518818
H -1.163668838 1.680227042 -3.246854805
H 0.565192310 3.857379207 -1.239357037
H 3.969572114 -3.191200878 0.146066362

