16

C -1.972945411 -0.612996050 2.427422201
C -1.322332738 -1.337290940 -0.268159923
N -2.692681092 2.767150871 -1.771256945
C -1.403088124 0.801558592 -2.158281869
C 3.744447964 0.806379982 0.413760146
C 3.223704734 -1.592357839 -0.106794433
O 0.973198428 -2.732709157 -0.488680681
H -0.623241937 0.718266116 3.223394762
H -3.829802320 0.274160351 2.457130585
H -2.009723148 -2.304741880 3.601852594
H -2.733830558 -2.700952517 -0.927530891
H -2.617923281 3.950988094 -3.283629008
H -0.337622627 0.439838234 -3.898172044
H 2.335047569 2.264382905 0.647451842
H 5.704283835 1.339416901 0.624961796
H 4.720988278 -2.976081183 -0.315367095

