11

C -2.894274939 0.234996250 -0.000177370
C -0.563651049 -0.657561934 -1.429510048
C 1.879471658 -0.247083902 -0.161305718
O 1.868554767 0.811732084 2.072690598
C 4.456200818 0.334628167 1.577422596
N 6.598867729 0.367133308 2.085647109
H -3.060787458 -0.708390596 1.823459269
H -4.588054776 -0.178788519 -1.094404668
H -2.831714403 2.265989796 0.340233227
H -0.364933667 0.228656143 -3.293082023
H -0.604709658 -2.686740454 -1.857457388

