9

O 4.302055555 -0.413341836 0.734073751
C 2.047028099 -0.725943828 0.540888599
N 0.748335438 -2.871652461 1.145753573
O -1.808501992 -2.301616764 0.595279886
C -2.192301437 -0.120625300 -0.252827139
C 0.169876987 1.275493665 -0.449823660
H 0.596689603 1.833693610 -2.392045677
H -4.129197998 0.379863335 -0.693412306
H 0.181569554 2.990167088 0.700505601

