13

C -3.304420852 -0.857671042 0.453703608
C -0.701494419 -1.305710744 1.434739317
C 1.359297651 1.500727929 -1.833308427
N 1.218215896 -0.020108595 0.481136460
C 3.662107362 0.503209992 0.826011005
O 3.999763853 1.814276825 -1.491015852
H -4.152012529 0.919262905 1.117152700
H -4.552697452 -2.380948129 1.056511748
H -3.371567356 -0.826208425 -1.617307685
H -0.333840567 -2.391678031 3.121339952
H 0.891422874 0.408650553 -3.516102246
H 0.297436297 3.264212034 -1.726256462
H 5.123719113 -0.579557025 1.740897947

