17

C -3.617750407 -0.945313214 0.706627992
C -2.035148808 1.131887178 -0.437850337
C 0.530800296 1.910007705 0.470407975
C 0.182259323 0.744763742 -2.148146097
C 1.730855375 -1.557974556 -1.352039761
C 2.100520312 -0.366400038 1.303448005
O 4.619532587 0.201938231 1.933095660
H -4.568528803 -0.276477231 2.411464295
H -2.503241641 -2.598325233 1.226897524
H -5.065805395 -1.567576915 -0.625371375
H -3.146497687 2.762187826 -1.006506571
H 5.306876056 1.266975875 0.633972728
H 0.962251037 3.840753150 0.996272306
H 0.288112142 1.658217138 -3.974841842
H 3.546382424 -1.671995906 -2.320090897
H 0.806998773 -3.399886849 -1.469988510
H 1.367557304 -1.438585816 2.905468222

