10

O 2.081479318 1.692896106 -3.035016960
C 0.984562826 0.837748869 -1.281762170
C 1.596079749 -1.575822849 0.058347297
O -3.797253753 -0.855440636 0.409538063
C -3.145186519 1.288313680 0.618172709
O -0.979606452 2.304365314 -0.254999530
H 1.370711522 -1.381601711 2.094961002
H 3.526006773 -2.097791131 -0.413243476
H 0.300752048 -3.045012005 -0.574694079
H -4.256383105 2.786518504 1.524639182

