10

O 2.107450070 2.980384675 -0.850515783
C 2.614226863 0.886654358 -0.174604987
C 0.812928715 -1.326513851 -0.277750472
O -1.558450483 -0.667421485 -1.308948885
C -3.130122454 0.557291856 0.253497953
O -2.741965149 0.974935559 2.435359788
H 4.506989626 0.398704093 0.585026648
H 1.614060134 -2.779093562 -1.505406967
H 0.620693698 -2.108782950 1.626334982
H -4.845811020 1.083841326 -0.782992259

