16

C -1.993408424 0.107120089 2.452812410
C -1.418037312 0.141319956 -0.336657487
N -2.372550715 2.330205959 -1.581447052
C 0.271991475 2.450963653 -2.386233957
C 2.066996684 0.345863855 -0.214010766
C 2.636854689 -2.428105696 0.371046912
O 1.518526523 -4.263791360 -0.337459487
H -1.488546169 1.908857636 3.310091315
H -4.034451817 -0.129639729 2.649285251
H -1.059500671 -1.438427174 3.445174948
H -1.680517947 -1.636627962 -1.320265302
H -3.458118400 1.752340087 -3.050814088
H 0.461727234 1.297787539 -4.134991974
H 2.563282643 1.482589771 1.423552535
H 3.593946623 0.664411775 -1.580397384
H 4.423413125 -2.622269840 1.459977516

