12

N 3.780165356 0.062741912 0.438529580
C 1.193864035 0.264623754 -0.017887259
C -0.327028142 2.456601556 0.348514158
N -2.714692281 1.418728707 0.374719255
C -2.828221037 -1.207445742 0.230926913
O -4.666218875 -2.548504135 0.254316734
N -0.321142099 -1.895306826 0.007480443
H 4.773937573 -0.783195046 -0.950641221
H 4.530607820 1.753946090 0.899034464
H 0.733980039 1.653489421 -1.941669045
H -4.308324873 2.447628853 0.424309485
H 0.252237771 -3.699409705 -0.087190263

