13

C -3.725728790 0.257991703 -0.181929301
C -1.034820319 0.044558665 0.700015840
C 0.921744588 0.063832095 -1.338665546
C 3.536043619 -0.234743159 -0.750655134
O 5.346510284 -1.829895109 -0.177672976
N 3.086661077 2.043704543 -1.102631780
N -0.299105492 -0.117332623 2.970371206
H -5.043825990 0.217465714 1.399282367
H -4.184865966 -1.289407529 -1.470140425
H -3.985749493 2.017542135 -1.231330444
H 0.247848561 -0.254107069 -3.254093930
H 6.867615999 -0.887544797 0.177617947
H -1.783394165 -0.044327003 4.190840184

