16

C -4.266652784 -0.679336360 1.094022585
C -2.249240038 1.298501326 0.533690273
C -0.705582520 0.638044729 -1.770229633
H -1.798632028 0.440733927 -3.495123962
C 1.938116096 1.648577739 -2.087563612
H 2.586877386 2.211728615 -3.943620071
H 2.675798808 2.764090270 -0.536792296
C 1.504717255 -1.102356145 -1.560036681
O 2.047954159 -2.065803303 0.836454010
H 3.846677631 -2.092567248 1.048208518
H 1.815248711 -2.432745616 -3.093535599
H -0.993130844 1.480609017 2.160458154
H -3.126357080 3.149383828 0.246942720
H -5.558768007 -0.902934046 -0.501875259
H -5.391880624 -0.157801183 2.742606087
H -3.396255381 -2.512068476 1.466043348

