19

C -4.256686878 -0.320645214 1.497878449
C -2.268055266 1.545630317 0.578589239
C -0.697773094 0.474065105 -1.517668644
C 1.839856177 1.613362655 -2.201196926
C 1.728934393 -1.029602936 -1.293442453
C 2.424426796 -1.025038208 2.579131342
O 4.008423202 -2.366010845 0.456000835
H -5.552664739 -0.853568881 -0.019908208
H -5.380710188 0.480628993 3.030372334
H -3.357335016 -2.039653613 2.199717422
H -0.988780354 2.034783335 2.120787246
H -3.165014830 3.288846731 -0.082105047
H -1.801989655 -0.242458249 -3.099364402
H 2.349529447 1.970495098 -4.152382009
H 2.489489065 3.027351475 -0.876304838
H 1.848220067 -2.474175934 -2.751432564
H 3.816150145 -0.134533231 3.829589178
H 1.629016277 -2.639861640 3.589065082
H 5.451917714 -1.313600351 0.118046769

