15

C -3.060975863 0.204489362 1.171245279
C -1.947613066 -0.752566478 -1.282691839
N 0.866035518 -0.602757155 -1.281756614
C 2.138838723 -2.243035992 0.736155983
C 3.715359825 -0.506829951 1.740359564
N 3.589605355 1.989589552 0.710939175
C 1.947054803 1.942026601 -1.006372457
H -5.113502857 0.045062806 1.089636795
H -2.372715707 -0.916896779 2.753465625
H -2.588570902 2.183407063 1.504714760
H -2.633755576 0.328217460 -2.903420382
H -2.395384143 -2.741069476 -1.568757749
H 1.500867505 -1.366214559 -2.936412657
H 5.047131613 -0.831074886 3.251063546
H 1.336259755 3.478035641 -2.210081908

