17

C -3.422759848 0.860110830 -0.302636615
C -1.409328925 -1.219777565 -0.398375980
C 0.640975713 -0.668037385 -2.371035513
C 2.595495595 1.165771612 -1.431976783
C 3.174811340 1.275643784 1.014121317
C 1.857263861 -0.338336225 2.836377151
C -0.252532474 -1.548242315 2.187473395
H -4.375017673 1.043776373 -2.125771210
H -4.851379910 0.439398419 1.125169315
H -2.569705633 2.678544353 0.172123210
H -2.347326272 -2.981718709 -0.934574108
H 1.607011078 -2.433115908 -2.878526680
H -0.231631139 0.028683491 -4.109146228
H 3.594617759 2.328383053 -2.791877484
H 4.638196712 2.540766708 1.687123163
H 2.611214110 -0.501860406 4.734196689
H -1.264915847 -2.685863810 3.560781910

