12

N 3.620560335 -2.724996127 1.781913356
C 1.624204411 -2.632344064 0.944599710
C 2.294314636 2.303110952 -1.773811855
C -0.963990190 -2.564415024 -0.060242825
N -2.467616071 -0.374311622 0.598699025
C -1.679693629 1.857530936 0.699701749
N 0.739087043 2.877404523 0.080490333
H 1.442071530 0.702631391 -2.808328475
H -0.889773313 -2.794819712 -2.111526908
H -1.941928240 -4.220477307 0.683037747
H -3.000369039 3.305784554 1.333813561
H 1.206412232 4.394003789 1.152370487

