12

N 3.617937414 -2.970562503 1.528916142
C 2.142585332 -1.754050460 0.428271806
C 2.128860723 1.226249688 -1.204022749
C -0.823294392 -2.190849145 -0.130792915
N -2.585302998 -0.213662073 0.281661014
C -1.939650175 2.070696767 0.441103727
N 0.625515448 2.755150505 0.177204305
H 1.054137666 0.683923311 -2.891240908
H -0.914486792 -2.858578372 -2.076250238
H -1.297129744 -3.750372407 1.121812840
H -3.310403630 3.533311415 0.878347292
H 1.399120833 3.597367481 1.711851099

