13

O -4.185226337 -0.851202170 -0.016753254
C -1.688324916 -1.567960908 0.513499929
C 0.398768930 0.259198841 -0.458637078
C 0.193898448 2.836383463 0.282903396
O -1.594036105 3.887212993 -0.914190559
C 2.849884347 -0.882365945 -0.520371275
C 4.892471324 -1.868749352 -0.600685202
H -4.693845897 0.492023248 1.086944918
H -1.436580723 -1.905726455 2.543440349
H -1.365469932 -3.351271414 -0.461007683
H -1.395271952 1.807322614 -2.060605838
H 1.328160842 3.941439195 1.606406063
H 6.702023475 -2.740411662 -0.692619811

