13

C -0.166777893 0.390302824 3.204834628
O 1.565728215 -1.312811674 2.053102416
C 0.661504337 -1.868779229 -0.302466748
C -1.795564908 -0.795824010 -0.543070571
O -2.372833871 0.410169817 1.669740026
C 1.338017162 2.737862081 -1.714220589
C 0.362090782 0.383659927 -2.351521540
H 0.657749867 2.276423937 3.236745753
H -0.656370083 -0.307454661 5.085420790
H 1.347872802 -3.610623172 -1.111042233
H -3.389255741 -1.556759783 -1.563166351
H 1.945877938 3.698471740 -3.459612172
H 0.199737494 -0.421870340 -4.244794246

