14

C -4.535872068 -0.423402492 -0.285704594
C -2.077332030 0.836383259 -0.251163896
N -0.767715638 2.625738319 -0.434499777
O -0.050129483 -2.129991611 0.522381774
C 2.164072255 -1.512937639 1.155739793
C 3.915425263 1.201390303 -0.775283065
O 5.665586911 2.162314847 0.273421733
H -4.902249731 -1.244599855 1.564055789
H -5.996838175 0.945530060 -0.761704041
H -4.501166945 -1.945543834 -1.668693647
H 1.549279945 1.737670786 -0.117790069
H 2.551854033 -0.740022420 3.044174724
H 3.719695103 -2.606957011 0.317081625
H 3.926668094 0.756551797 -2.833555941

