10

O 3.904649364 0.772674374 -0.035229541
C 1.785906839 -0.044838911 -0.322156390
C -0.459739412 1.192663000 1.011955426
C -2.841839178 -0.124535427 1.056761570
N 1.168794947 -2.024029962 -1.796445029
H 0.197941120 2.292365251 2.636241076
H -1.243168010 2.624888773 -0.347950075
H -4.079573696 0.843296066 2.425993001
H -0.626875862 -2.657455236 -1.781945217
H 2.541711741 -2.957300953 -2.712339950

