12

N 4.702180080 -2.166815948 2.178143496
C 3.174325378 -1.302442728 0.906916663
C 1.243596354 -0.180589372 -0.753064988
C -1.311942267 -1.576565322 -0.642577936
N -2.894138785 0.022821901 1.021967592
C -1.776570005 2.270132529 1.302882467
N 0.469312406 2.341285083 0.081995349
H 2.019145190 -0.127851896 -2.661928067
H -2.173350716 -1.679129584 -2.512034367
H -1.174145687 -3.477958899 0.127377764
H -4.026174608 2.124655308 0.554694881
H 1.734209582 3.721323801 0.391811790

