8

O -2.207150811 0.267014220 -1.139995804
C -0.131336627 0.942022728 0.390083389
C -1.111161777 -1.646416724 0.366302339
C 2.208477776 1.534618240 -0.912437025
N 4.075753255 2.013421379 -1.901794161
H -0.552182301 2.179966080 1.970290365
H -0.077005659 -3.090921786 -0.657682101
H -2.240716636 -2.279499693 1.956755353

