14

O 3.809238906 -1.155281364 -1.426343793
C 1.981860704 -0.592002175 0.425318618
C 0.730944345 2.170399492 0.389878203
C -2.005687335 1.908588142 0.000042084
C -2.727776481 -0.879282215 -0.414093872
C -0.273022812 -2.093371402 -0.035477662
N -0.906137850 2.183134962 2.418714437
H 5.443235575 -1.288466011 -0.656254262
H 2.815426136 -0.674518484 2.308978778
H 2.023389704 3.684831035 -0.104598949
H -3.273435523 3.343887479 -0.739740907
H -3.536114522 -1.412587097 -2.251834689
H -4.155785859 -1.296284431 1.019981225
H 0.072880463 -3.906510461 -0.943811845

