11

C -0.608014373 -1.233345194 1.882960489
H 0.080098763 -3.180781873 1.907691014
H -1.933985079 -1.032872446 3.457320841
C -1.949450900 -0.415273457 -0.642232248
H -1.184752304 -1.519934293 -2.214446873
H -3.999153755 -0.670793947 -0.656229696
C -1.238270671 2.342639827 -0.679082853
H -2.541887278 3.786945278 -1.331222784
C 0.937031376 2.759085406 0.604973747
C 1.541271928 0.635890309 1.901834753
H 3.418029240 0.120005489 2.551482740

