13

C -2.824412010 0.230910019 0.512476434
C -0.535153015 -0.472230332 -1.043074567
C 1.544005530 -1.878844080 -0.058832258
C 2.159708065 2.837300641 0.138768523
O 3.602470762 1.238871301 0.965824774
H -4.418199767 -1.041331975 0.178368792
H -2.382134102 0.202364157 2.524973114
H -3.414573517 2.138464633 0.030841464
H -0.462765639 0.089375353 -3.005959057
H 2.979618070 -2.587350252 -1.325278065
H -0.620635060 -2.883928065 -1.251414302
H 1.422473690 -2.678592428 1.817741316
H 2.879713031 4.796243503 0.479904699

