13

C -0.547126112 3.461163278 0.321215307
C -0.609086207 -2.776351002 -2.549397503
O 1.106159351 -3.252203788 -0.529995272
C 1.375355561 -1.091661599 0.787107365
N 2.786820822 -0.936320763 2.692851394
C -0.277362587 0.797931225 -0.520992334
N -1.388076631 -0.176907410 -2.406113252
H -1.286707640 3.532102973 2.247129346
H 1.289265989 4.403514875 0.325242143
H -1.823948727 4.473300893 -0.930790480
H 0.338238734 -3.145202884 -4.346528389
H -2.241240374 -4.027327171 -2.362914264
H 2.737290704 0.835385445 3.423303617

