11

O -2.950403150 3.048618415 0.584439775
C -1.100045180 1.598553608 -0.063232239
C -1.681551249 -0.957100891 -0.657935136
C 0.716014696 -2.285371772 -0.358204995
C 2.497528035 -0.569059483 0.235402031
N 1.389574976 1.852183881 0.370130773
H -3.039903433 -1.398517424 -2.124703118
H -3.487667386 0.553398945 0.816421987
H 1.061870123 -4.263294929 -0.708539431
H 4.494335018 -0.796094014 0.565648867
H 2.123515746 3.328158628 1.313472813

