12

O 0.760249443 -3.910652721 3.242839969
C -0.381267590 -2.848240833 1.643932207
C 0.418585014 -1.239083442 -0.727998943
N -2.339544456 -1.098433583 -0.983278020
C -3.220204054 -2.407249053 0.946681924
C 0.735507524 3.393876688 0.114399522
C 1.804997854 1.160424216 -0.239171203
H 1.315736101 -2.353289436 -2.219210891
H -3.366407062 -0.224852559 -2.335778345
H -1.296434211 3.650833540 0.043340207
H 1.864727486 5.052827285 0.506091881
H 3.843285213 0.961255114 -0.124242538

