12

O -2.761993090 2.299134212 0.072976839
C -1.780398098 -0.142843453 0.167442736
C 0.183876815 -0.434000265 -1.937729533
C 2.616338424 -0.285674566 -0.473591407
C 2.068689557 -0.354849162 1.963903979
O -0.453284883 -0.523402849 2.495577252
H -3.865577122 2.529421057 1.495171152
H -3.293742992 -1.549104786 0.129110870
H -0.016363649 -2.236567308 -2.925885371
H -0.058470073 1.082038981 -3.313103425
H 4.484428243 -0.171546163 -1.277845977
H 3.292682572 -0.321675001 3.597026253

