12

O -3.980458921 0.709292922 0.449098648
C -2.136498070 -0.632684804 -0.388569964
C 0.030566320 0.156488145 -1.869498685
C 2.216559587 -0.734281262 -0.274094834
C 2.147714426 0.118451945 2.186152344
O 0.280998439 1.264629421 3.104855379
H -3.512161997 2.478360506 0.475977035
H -2.402736727 -2.641944591 -0.058526065
H -0.012736433 -0.931546049 -3.629430823
H -0.005177680 2.183379568 -2.299868390
H 3.744088859 -1.810888111 -1.090542257
H 3.843449261 -0.168477701 3.363395632

