10

C 0.897382730 1.709512393 -0.304981010
C 2.214224112 -0.715098538 -0.175341905
N 1.437327221 -2.988343881 0.101285692
N -1.042396930 -3.369937619 0.336459122
C -3.109890668 -4.110274659 0.571633932
C -1.544601625 2.190986717 0.068729490
H 2.144902117 3.276849521 -0.744009609
H 4.256822334 -0.622892470 -0.361226005
H -2.920965204 0.758926975 0.532023383
H -2.221746791 4.116967766 -0.082576326

