10

C 1.023474025 1.455716694 -0.352825606
C 2.352493370 -0.693863289 0.024518497
N 1.232333057 -3.028907324 -0.100525304
N -1.157045971 -3.272652647 -0.296789368
C -2.884016580 -1.273828551 -0.099371777
C -1.657386282 1.192708883 -0.187819880
H 1.927048820 3.256198178 -0.711846055
H 4.389972285 -0.744093646 0.201016309
H -2.351165535 0.298722407 1.832361542
H -2.872454990 2.840000607 -0.309470451

