9

C 1.660417157 1.414156231 2.077348622
C -0.417169760 2.864480780 0.825789907
H -0.615141550 4.740211990 1.668241360
H -2.231962839 1.906459990 1.062181606
H -0.065613408 3.095422301 -1.192363913
C 3.674552834 0.492370296 0.914429892
H 5.117545170 -0.545013644 1.929984434
H 3.954999113 0.744235148 -1.101835393
H 1.462543103 1.113797624 4.101262687

