14

C -1.975995354 -2.182237493 -0.869164659
C 0.468459724 0.315284703 1.050100531
C -0.543427370 2.725158813 -0.041330786
C 3.041982566 -0.381967601 0.607327986
H -2.232988091 -1.577377489 -2.823720125
H -1.456682363 -4.183755884 -0.778764602
H -3.687153547 -1.868240392 0.229902720
H -0.321478016 -0.249146028 2.853776068
H 0.262783671 4.280940795 1.052355427
H -2.596694967 2.833961609 0.038126793
H 0.065157171 2.952487178 -1.996352920
H 4.004625343 -1.625926499 1.904285633
H 4.078766499 0.527443764 -0.897562764
H 0.819089033 -1.624426510 -0.397687836

