14

C -2.002750587 -1.931120689 0.807606207
C -1.011906104 0.684826732 0.064314353
C 1.539807163 0.554882550 -1.312969919
C 3.757363618 0.101584666 0.367390197
O 3.410580979 0.220557457 2.791492716
C -2.857066572 2.007081972 -1.518078695
N -4.295556674 3.017869113 -2.787498402
H -3.798030449 -1.781734116 1.804471962
H -0.648934313 -2.866191001 2.044920846
H -2.291081655 -3.101604030 -0.865215075
H -0.765725170 1.816216818 1.777118951
H 1.540789613 -0.884446572 -2.795736399
H 1.971502719 2.331724675 -2.287755756
H 5.435419120 -0.174381300 2.020629740

