12

N 5.084288428 0.799020482 -1.714710443
C 3.229931155 0.328777707 -0.697198485
C 0.863457006 -0.300771229 0.615582783
C -0.753375886 2.036183244 1.013613207
C -2.709153853 -2.508514317 -1.694434514
N -0.428692176 -2.354184542 -0.800693721
H 1.400746640 -1.079484827 2.454270031
H -2.435639278 1.568146384 2.103921592
H 0.338183913 3.431404551 2.061722269
H -3.692748005 -0.719539773 -1.266236973
H -1.324311035 2.868157639 -0.781024941
H 0.715479299 -3.865301430 -1.070192250

