9

N -2.406139765 0.991542907 1.591364523
C -1.461378729 -1.275333851 0.936351547
O -2.648735775 -3.173359652 0.553262582
C 1.364091187 -1.351657470 0.682467541
C 3.519295921 -2.383259377 0.237376889
C 3.193662624 0.761025308 1.079373484
N 3.984736694 2.751711563 1.531397126
H -1.301291677 2.506762163 1.878405834
H -4.288135058 1.151477194 1.786618359

