15

C -1.978052075 2.987537667 -0.640986843
C -0.684842473 0.454942872 -0.373998400
C -2.211619616 -1.474256192 1.087813719
C 4.213198668 -2.204386992 -1.561699621
C 3.574819835 -0.485608346 0.330915838
O 5.719115596 -0.423941612 1.248349317
O 1.671968845 0.927980362 0.967298873
H -0.797089238 4.302141179 -1.697869337
H -3.765048057 2.761928480 -1.643034549
H -2.366220869 3.795472931 1.216183401
H -1.193988681 -3.259523888 1.253801026
H -2.628977271 -0.777037392 2.983024793
H -3.993250364 -1.841254593 0.117400823
H 4.108864488 -4.151621866 -0.870640573
H -0.185080173 -0.283822937 -2.241123872

