15

C -1.804131282 2.693359881 -0.840665945
C -0.490322475 0.276642582 -0.074505533
C -2.117929470 -1.552844913 1.400241875
C 3.444089735 -1.433893381 -2.043643373
C 3.742884915 -0.239493930 0.386094518
O 5.837456539 -0.209191227 1.273967994
O 1.718572023 0.905334962 1.372508028
H -0.546049365 3.879603331 -1.958274674
H -3.489183343 2.278771468 -1.952399080
H -2.366848447 3.736496752 0.847668797
H -1.050067952 -3.234399885 1.927418299
H -2.794567376 -0.647966622 3.125651759
H -3.748926124 -2.131298810 0.280299127
H 3.234360200 -3.489415704 -1.826596195
H 0.176367610 -0.659312368 -1.868080899

