13

O 2.399976216 -2.292800323 2.067532402
N 1.463995187 -0.010173095 1.131929130
C 0.300856248 -0.066150902 -1.266705644
C 0.730140399 -1.473367738 -3.283266161
C -0.845534503 1.007051984 2.304907609
C -1.692172776 1.784215496 -0.379603346
H 4.109770347 -1.915760522 2.543700073
H -0.426236893 -1.269872183 -4.954618785
H 2.225060841 -2.867782680 -3.284878948
H -0.512145373 2.470948414 3.714405079
H -2.026263089 -0.498662498 3.082618972
H -3.628286461 1.333484295 -0.897958964
H -1.271454451 3.744088500 -0.844848098

