28

C     2.57088   0.05404   1.94060
C     2.17468   0.29557   0.51632
O     2.91524   0.77176  -0.32478
C     0.70935   0.06768   0.17420
O     0.14064  -1.03168   0.87725
C    -0.92124  -1.46444   0.08768
O    -1.74667  -2.26321   0.48403
C    -0.78832  -0.71932  -1.14922
C    -1.43610  -1.04063  -2.45019
O     0.50554  -0.23865  -1.18628
C    -1.58083   0.96404  -0.01451
C    -2.63010   0.60965   1.01029
C    -0.26346   1.45032   0.40501
C     0.29371   2.62900  -0.41144
H     2.53825  -1.01543   2.18774
H     3.58245   0.45322   2.12179
H     1.84985   0.56239   2.60775
H    -0.93390  -1.85118  -3.04669
H    -1.42748  -0.13348  -3.08120
H    -2.46106  -1.35140  -2.27042
H    -2.00484   1.37331  -0.94368
H    -2.17472   0.25139   1.95980
H    -3.30743   1.46307   1.31481
H    -3.29255  -0.17405   0.63138
H    -0.20041   1.68817   1.51521
H    -0.17393   3.64959  -0.24893
H     0.16760   2.42553  -1.49395
H     1.36387   2.76235  -0.21279
28

C     2.57127   0.05478   1.94142
C     2.17726   0.29242   0.51583
O     2.91601   0.77425  -0.32449
C     0.72287   0.04511   0.16959
O     0.14202  -1.03448   0.87473
C    -0.92142  -1.46866   0.08456
O    -1.74869  -2.26401   0.48448
C    -0.78095  -0.73307  -1.15383
C    -1.43440  -1.04157  -2.45287
O     0.50547  -0.24141  -1.18382
C    -1.58728   0.98188  -0.00610
C    -2.63249   0.61111   1.01398
C    -0.27984   1.47365   0.40910
C     0.29308   2.63362  -0.41342
H     2.53876  -1.01501   2.18886
H     3.58234   0.45399   2.12203
H     1.84966   0.56297   2.60738
H    -0.93520  -1.85072  -3.04985
H    -1.42673  -0.13253  -3.08008
H    -2.46063  -1.35096  -2.27045
H    -2.00548   1.37276  -0.94305
H    -2.17487   0.25290   1.96103
H    -3.31144   1.46063   1.31594
H    -3.28988  -0.17559   0.63145
H    -0.20020   1.69028   1.51544
H    -0.16907   3.65325  -0.25075
H     0.16571   2.42624  -1.49417
H     1.36404   2.75915  -0.21404
28

C     2.57166   0.05552   1.94224
C     2.17985   0.28926   0.51534
O     2.91678   0.77674  -0.32420
C     0.73639   0.02254   0.16497
O     0.14341  -1.03728   0.87221
C    -0.92159  -1.47289   0.08144
O    -1.75071  -2.26481   0.48494
C    -0.77358  -0.74683  -1.15844
C    -1.43269  -1.04251  -2.45554
O     0.50539  -0.24417  -1.18137
C    -1.59373   0.99972   0.00231
C    -2.63488   0.61257   1.01768
C    -0.29621   1.49697   0.41320
C     0.29246   2.63824  -0.41539
H     2.53927  -1.01459   2.18998
H     3.58223   0.45475   2.12227
H     1.84948   0.56354   2.60702
H    -0.93650  -1.85027  -3.05302
H    -1.42597  -0.13158  -3.07895
H    -2.46020  -1.35052  -2.27048
H    -2.00611   1.37221  -0.94242
H    -2.17501   0.25441   1.96226
H    -3.31545   1.45818   1.31707
H    -3.28720  -0.17713   0.63151
H    -0.19998   1.69239   1.51567
H    -0.16421   3.65691  -0.25256
H     0.16383   2.42696  -1.49439
H     1.36421   2.75596  -0.21529
28

C     2.57204   0.05626   1.94305
C     2.18243   0.28611   0.51484
O     2.91756   0.77923  -0.32391
C     0.74991  -0.00003   0.16035
O     0.14479  -1.04008   0.86970
C    -0.92177  -1.47712   0.07831
O    -1.75273  -2.26560   0.48539
C    -0.76622  -0.76058  -1.16305
C    -1.43098  -1.04345  -2.45822
O     0.50531  -0.24693  -1.17892
C    -1.60018   1.01757   0.01072
C    -2.63728   0.61403   1.02138
C    -0.31259   1.52029   0.41730
C     0.29184   2.64285  -0.41736
H     2.53978  -1.01417   2.19109
H     3.58211   0.45551   2.12251
H     1.84929   0.56411   2.60665
H    -0.93780  -1.84981  -3.05618
H    -1.42522  -0.13062  -3.07783
H    -2.45976  -1.35008  -2.27050
H    -2.00674   1.37167  -0.94180
H    -2.17516   0.25593   1.96349
H    -3.31947   1.45574   1.31821
H    -3.28453  -0.17868   0.63158
H    -0.19977   1.69450   1.51590
H    -0.15935   3.66057  -0.25437
H     0.16194   2.42768  -1.49462
H     1.36438   2.75276  -0.21655
28

C     2.57243   0.05700   1.94387
C     2.18502   0.28295   0.51435
O     2.91833   0.78172  -0.32362
C     0.76342  -0.02261   0.15573
O     0.14617  -1.04288   0.86718
C    -0.92194  -1.48134   0.07519
O    -1.75475  -2.26640   0.48585
C    -0.75885  -0.77434  -1.16766
C    -1.42928  -1.04438  -2.46090
O     0.50524  -0.24969  -1.17646
C    -1.60663   1.03541   0.01913
C    -2.63967   0.61549   1.02508
C    -0.32897   1.54362   0.42139
C     0.29121   2.64747  -0.41933
H     2.54030  -1.01375   2.19221
H     3.58200   0.45628   2.12275
H     1.84910   0.56468   2.60628
H    -0.93910  -1.84936  -3.05934
H    -1.42447  -0.12967  -3.07670
H    -2.45933  -1.34964  -2.27053
H    -2.00737   1.37112  -0.94117
H    -2.17531   0.25744   1.96472
H    -3.32348   1.45329   1.31934
H    -3.28186  -0.18022   0.63165
H    -0.19955   1.69661   1.51613
H    -0.15449   3.66422  -0.25619
H     0.16006   2.42839  -1.49484
H     1.36455   2.74957  -0.21780
28

C     2.57281   0.05774   1.94468
C     2.18760   0.27980   0.51385
O     2.91910   0.78421  -0.32333
C     0.77694  -0.04518   0.15111
O     0.14755  -1.04567   0.86466
C    -0.92212  -1.48557   0.07207
O    -1.75677  -2.26719   0.48631
C    -0.75148  -0.78809  -1.17227
C    -1.42757  -1.04532  -2.46357
O     0.50516  -0.25245  -1.17401
C    -1.61308   1.05325   0.02754
C    -2.64207   0.61696   1.02877
C    -0.34534   1.56694   0.42549
C     0.29059   2.65208  -0.42130
H     2.54081  -1.01333   2.19333
H     3.58189   0.45704   2.12298
H     1.84892   0.56526   2.60591
H    -0.94040  -1.84890  -3.06251
H    -1.42372  -0.12872  -3.07558
H    -2.45890  -1.34920  -2.27055
H    -2.00800   1.37057  -0.94054
H    -2.17545   0.25895   1.96595
H    -3.32749   1.45084   1.32047
H    -3.27918  -0.18176   0.63171
H    -0.19934   1.69872   1.51636
H    -0.14962   3.66788  -0.25800
H     0.15817   2.42911  -1.49507
H     1.36473   2.74638  -0.21905
28

C     2.57320   0.05848   1.94550
C     2.19019   0.27664   0.51336
O     2.91987   0.78670  -0.32304
C     0.79046  -0.06775   0.14649
O     0.14894  -1.04847   0.86214
C    -0.92229  -1.48979   0.06895
O    -1.75879  -2.26799   0.48676
C    -0.74412  -0.80185  -1.17688
C    -1.42587  -1.04626  -2.46625
O     0.50509  -0.25521  -1.17156
C    -1.61953   1.07109   0.03595
C    -2.64446   0.61842   1.03247
C    -0.36172   1.59027   0.42958
C     0.28996   2.65670  -0.42327
H     2.54132  -1.01291   2.19445
H     3.58177   0.45780   2.12322
H     1.84873   0.56583   2.60555
H    -0.94170  -1.84844  -3.06567
H    -1.42297  -0.12776  -3.07445
H    -2.45846  -1.34877  -2.27058
H    -2.00864   1.37002  -0.93992
H    -2.17560   0.26047   1.96718
H    -3.33151   1.44840   1.32160
H    -3.27651  -0.18330   0.63178
H    -0.19912   1.70083   1.51659
H    -0.14476   3.67154  -0.25982
H     0.15629   2.42983  -1.49529
H     1.36490   2.74318  -0.22031
28

C     2.57359   0.05922   1.94632
C     2.19277   0.27349   0.51287
O     2.92065   0.78919  -0.32275
C     0.80398  -0.09033   0.14187
O     0.15032  -1.05127   0.85963
C    -0.92246  -1.49402   0.06582
O    -1.76082  -2.26878   0.48722
C    -0.73675  -0.81560  -1.18149
C    -1.42416  -1.04720  -2.46892
O     0.50501  -0.25797  -1.16910
C    -1.62598   1.08894   0.04435
C    -2.64686   0.61988   1.03617
C    -0.37810   1.61359   0.43368
C     0.28934   2.66132  -0.42525
H     2.54183  -1.01249   2.19557
H     3.58166   0.45857   2.12346
H     1.84854   0.56640   2.60518
H    -0.94300  -1.84799  -3.06883
H    -1.42221  -0.12681  -3.07333
H    -2.45803  -1.34833  -2.27060
H    -2.00927   1.36947  -0.93929
H    -2.17575   0.26198   1.96841
H    -3.33552   1.44595   1.32274
H    -3.27383  -0.18485   0.63185
H    -0.19890   1.70294   1.51681
H    -0.13990   3.67520  -0.26163
H     0.15441   2.43054  -1.49552
H     1.36507   2.73999  -0.22156
28

C     2.57397   0.05996   1.94713
C     2.19536   0.27033   0.51237
O     2.92142   0.79168  -0.32246
C     0.81750  -0.11290   0.13725
O     0.15170  -1.05407   0.85711
C    -0.92264  -1.49825   0.06270
O    -1.76284  -2.26958   0.48768
C    -0.72939  -0.82936  -1.18610
C    -1.42246  -1.04814  -2.47160
O     0.50494  -0.26073  -1.16665
C    -1.63243   1.10678   0.05276
C    -2.64925   0.62134   1.03987
C    -0.39447   1.63692   0.43778
C     0.28871   2.66593  -0.42722
H     2.54235  -1.01207   2.19669
H     3.58155   0.45933   2.12370
H     1.84836   0.56698   2.60481
H    -0.94430  -1.84753  -3.07200
H    -1.42146  -0.12586  -3.07220
H    -2.45760  -1.34789  -2.27063
H    -2.00990   1.36892  -0.93866
H    -2.17589   0.26349   1.96964
H    -3.33953   1.44351   1.32387
H    -3.27116  -0.18639   0.63192
H    -0.19869   1.70505   1.51704
H    -0.13504   3.67886  -0.26345
H     0.15252   2.43126  -1.49574
H     1.36524   2.73679  -0.22281
28

C     2.57436   0.06070   1.94795
C     2.19794   0.26718   0.51188
O     2.92219   0.79417  -0.32217
C     0.83102  -0.13547   0.13264
O     0.15308  -1.05687   0.85459
C    -0.92281  -1.50247   0.05958
O    -1.76486  -2.27038   0.48813
C    -0.72202  -0.84311  -1.19071
C    -1.42075  -1.04908  -2.47428
O     0.50486  -0.26349  -1.16420
C    -1.63888   1.12462   0.06117
C    -2.65164   0.62281   1.04357
C    -0.41085   1.66024   0.44187
C     0.28809   2.67055  -0.42919
H     2.54286  -1.01165   2.19781
H     3.58143   0.46009   2.12394
H     1.84817   0.56755   2.60444
H    -0.94561  -1.84707  -3.07516
H    -1.42071  -0.12491  -3.07108
H    -2.45716  -1.34745  -2.27065
H    -2.01053   1.36837  -0.93804
H    -2.17604   0.26500   1.97087
H    -3.34354   1.44106   1.32500
H    -3.26849  -0.18793   0.63198
H    -0.19847   1.70716   1.51727
H    -0.13018   3.68251  -0.26526
H     0.15064   2.43198  -1.49597
H     1.36542   2.73360  -0.22407
28

C     2.57475   0.06144   1.94877
C     2.20053   0.26402   0.51138
O     2.92296   0.79666  -0.32188
C     0.84454  -0.15805   0.12802
O     0.15447  -1.05966   0.85208
C    -0.92299  -1.50670   0.05646
O    -1.76688  -2.27117   0.48859
C    -0.71465  -0.85687  -1.19532
C    -1.41905  -1.05002  -2.47695
O     0.50479  -0.26625  -1.16174
C    -1.64533   1.14247   0.06958
C    -2.65404   0.62427   1.04726
C    -0.42723   1.68357   0.44597
C     0.28746   2.67517  -0.43116
H     2.54337  -1.01123   2.19893
H     3.58132   0.46086   2.12418
H     1.84799   0.56812   2.60407
H    -0.94691  -1.84662  -3.07832
H    -1.41996  -0.12395  -3.06995
H    -2.45673  -1.34701  -2.27068
H    -2.01116   1.36782  -0.93741
H    -2.17619   0.26652   1.97210
H    -3.34756   1.43862   1.32614
H    -3.26581  -0.18947   0.63205
H    -0.19826   1.70927   1.51750
H    -0.12532   3.68617  -0.26707
H     0.14875   2.43269  -1.49619
H     1.36559   2.73040  -0.22532
28

C     2.57513   0.06218   1.94958
C     2.20311   0.26087   0.51089
O     2.92374   0.79915  -0.32159
C     0.85806  -0.18062   0.12340
O     0.15585  -1.06246   0.84956
C    -0.92316  -1.51093   0.05333
O    -1.76890  -2.27197   0.48904
C    -0.70729  -0.87062  -1.19993
C    -1.41734  -1.05096  -2.47963
O     0.50471  -0.26901  -1.15929
C    -1.65178   1.16031   0.07799
C    -2.65643   0.62573   1.05096
C    -0.44360   1.70689   0.45007
C     0.28684   2.67978  -0.43313
H     2.54388  -1.01081   2.20005
H     3.58121   0.46162   2.12442
H     1.84780   0.56869   2.60371
H    -0.94821  -1.84616  -3.08148
H    -1.41921  -0.12300  -3.06883
H    -2.45630  -1.34657  -2.27071
H    -2.01180   1.36727  -0.93678
H    -2.17633   0.26803   1.97333
H    -3.35157   1.43617   1.32727
H    -3.26314  -0.19102   0.63212
H    -0.19804   1.71138   1.51773
H    -0.12045   3.68983  -0.26889
H     0.14687   2.43341  -1.49641
H     1.36576   2.72721  -0.22657
28

C     2.57552   0.06292   1.95040
C     2.20570   0.25771   0.51040
O     2.92451   0.80164  -0.32131
C     0.87158  -0.20319   0.11878
O     0.15723  -1.06526   0.84704
C    -0.92334  -1.51515   0.05021
O    -1.77092  -2.27276   0.48950
C    -0.69992  -0.88437  -1.20454
C    -1.41564  -1.05190  -2.48231
O     0.50464  -0.27177  -1.15684
C    -1.65823   1.17815   0.08640
C    -2.65883   0.62719   1.05466
C    -0.45998   1.73022   0.45416
C     0.28621   2.68440  -0.43511
H     2.54440  -1.01039   2.20116
H     3.58109   0.46238   2.12466
H     1.84761   0.56927   2.60334
H    -0.94951  -1.84570  -3.08465
H    -1.41845  -0.12205  -3.06770
H    -2.45587  -1.34613  -2.27073
H    -2.01243   1.36672  -0.93616
H    -2.17648   0.26954   1.97456
H    -3.35558   1.43373   1.32840
H    -3.26046  -0.19256   0.63218
H    -0.19783   1.71349   1.51796
H    -0.11559   3.69349  -0.27070
H     0.14498   2.43413  -1.49664
H     1.36593   2.72401  -0.22782
28

C     2.57590   0.06366   1.95121
C     2.20828   0.25456   0.50990
O     2.92528   0.80413  -0.32102
C     0.88510  -0.22577   0.11416
O     0.15861  -1.06806   0.84452
C    -0.92351  -1.51938   0.04709
O    -1.77294  -2.27356   0.48996
C    -0.69255  -0.89813  -1.20914
C    -1.41393  -1.05284  -2.48498
O     0.50456  -0.27453  -1.15438
C    -1.66468   1.19599   0.09481
C    -2.66122   0.62866   1.05836
C    -0.47636   1.75354   0.45826
C     0.28559   2.68902  -0.43708
H     2.54491  -1.00997   2.20228
H     3.58098   0.46315   2.12489
H     1.84743   0.56984   2.60297
H    -0.95081  -1.84525  -3.08781
H    -1.41770  -0.12109  -3.06658
H    -2.45543  -1.34570  -2.27076
H    -2.01306   1.36617  -0.93553
H    -2.17663   0.27105   1.97579
H    -3.35959   1.43128   1.32953
H    -3.25779  -0.19410   0.63225
H    -0.19761   1.71560   1.51819
H    -0.11073   3.69714  -0.27252
H     0.14310   2.43484  -1.49686
H     1.36611   2.72082  -0.22908
28

C     2.57629   0.06440   1.95203
C     2.21087   0.25140   0.50941
O     2.92605   0.80662  -0.32073
C     0.89862  -0.24834   0.10954
O     0.16000  -1.07086   0.84201
C    -0.92369  -1.52361   0.04397
O    -1.77496  -2.27436   0.49041
C    -0.68519  -0.91188  -1.21375
C    -1.41223  -1.05378  -2.48766
O     0.50449  -0.27729  -1.15193
C    -1.67113   1.21384   0.10321
C    -2.66361   0.63012   1.06205
C    -0.49273   1.77687   0.46236
C     0.28496   2.69363  -0.43905
H     2.54542  -1.00955   2.20340
H     3.58087   0.46391   2.12513
H     1.84724   0.57041   2.60260
H    -0.95211  -1.84479  -3.09097
H    -1.41695  -0.12014  -3.06545
H    -2.45500  -1.34526  -2.27078
H    -2.01369   1.36562  -0.93490
H    -2.17677   0.27257   1.97702
H    -3.36361   1.42884   1.33067
H    -3.25512  -0.19564   0.63232
H    -0.19740   1.71771   1.51842
H    -0.10587   3.70080  -0.27433
H     0.14121   2.43556  -1.49709
H     1.36628   2.71762  -0.23033
28

C     2.57668   0.06514   1.95285
C     2.21345   0.24825   0.50891
O     2.92683   0.80912  -0.32044
C     0.91214  -0.27091   0.10492
O     0.16138  -1.07365   0.83949
C    -0.92386  -1.52783   0.04084
O    -1.77698  -2.27515   0.49087
C    -0.67782  -0.92564  -1.21836
C    -1.41052  -1.05471  -2.49034
O     0.50441  -0.28005  -1.14948
C    -1.67758   1.23168   0.11162
C    -2.66601   0.63158   1.06575
C    -0.50911   1.80019   0.46645
C     0.28434   2.69825  -0.44102
H     2.54593  -1.00913   2.20452
H     3.58075   0.46467   2.12537
H     1.84705   0.57099   2.60224
H    -0.95341  -1.84433  -3.09414
H    -1.41620  -0.11919  -3.06433
H    -2.45457  -1.34482  -2.27081
H    -2.01432   1.36507  -0.93428
H    -2.17692   0.27408   1.97825
H    -3.36762   1.42639   1.33180
H    -3.25244  -0.19719   0.63238
H    -0.19718   1.71982   1.51865
H    -0.10101   3.70446  -0.27615
H     0.13933   2.43628  -1.49731
H     1.36645   2.71443  -0.23158
28

C     2.57706   0.06589   1.95366
C     2.21604   0.24509   0.50842
O     2.92760   0.81161  -0.32015
C     0.92566  -0.29349   0.10030
O     0.16276  -1.07645   0.83697
C    -0.92403  -1.53206   0.03772
O    -1.77900  -2.27595   0.49133
C    -0.67046  -0.93939  -1.22297
C    -1.40882  -1.05565  -2.49301
O     0.50434  -0.28281  -1.14702
C    -1.68403   1.24952   0.12003
C    -2.66840   0.63304   1.06945
C    -0.52548   1.82351   0.47055
C     0.28371   2.70287  -0.44299
H     2.54644  -1.00871   2.20564
H     3.58064   0.46544   2.12561
H     1.84687   0.57156   2.60187
H    -0.95471  -1.84388  -3.09730
H    -1.41545  -0.11824  -3.06320
H    -2.45413  -1.34438  -2.27083
H    -2.01496   1.36452  -0.93365
H    -2.17707   0.27559   1.97948
H    -3.37163   1.42395   1.33293
H    -3.24977  -0.19873   0.63245
H    -0.19697   1.72193   1.51888
H    -0.09615   3.70812  -0.27796
H     0.13744   2.43699  -1.49754
H     1.36662   2.71124  -0.23284
28

C     2.57745   0.06663   1.95448
C     2.21862   0.24194   0.50793
O     2.92837   0.81410  -0.31986
C     0.93918  -0.31606   0.09568
O     0.16414  -1.07925   0.83446
C    -0.92421  -1.53629   0.03460
O    -1.78102  -2.27674   0.49178
C    -0.66309  -0.95315  -1.22758
C    -1.40711  -1.05659  -2.49569
O     0.50426  -0.28557  -1.14457
C    -1.69048   1.26737   0.12844
C    -2.67080   0.63451   1.07315
C    -0.54186   1.84684   0.47465
C     0.28309   2.70748  -0.44497
H     2.54696  -1.00829   2.20676
H     3.58053   0.46620   2.12585
H     1.84668   0.57213   2.60150
H    -0.95601  -1.84342  -3.10046
H    -1.41469  -0.11728  -3.06208
H    -2.45370  -1.34394  -2.27086
H    -2.01559   1.36397  -0.93302
H    -2.17721   0.27711   1.98071
H    -3.37565   1.42150   1.33407
H    -3.24710  -0.20027   0.63252
H    -0.19675   1.72404   1.51911
H    -0.09128   3.71178  -0.27977
H     0.13556   2.43771  -1.49776
H     1.36679   2.70804  -0.23409
28

C     2.57784   0.06737   1.95530
C     2.22121   0.23878   0.50743
O     2.92914   0.81659  -0.31957
C     0.95270  -0.33863   0.09107
O     0.16553  -1.08205   0.83194
C    -0.92438  -1.54051   0.03148
O    -1.78305  -2.27754   0.49224
C    -0.65572  -0.96690  -1.23219
C    -1.40540  -1.05753  -2.49837
O     0.50419  -0.28833  -1.14212
C    -1.69693   1.28521   0.13685
C    -2.67319   0.63597   1.07684
C    -0.55824   1.87016   0.47874
C     0.28246   2.71210  -0.44694
H     2.54747  -1.00787   2.20788
H     3.58041   0.46696   2.12609
H     1.84649   0.57270   2.60113
H    -0.95731  -1.84296  -3.10363
H    -1.41394  -0.11633  -3.06095
H    -2.45327  -1.34350  -2.27089
H    -2.01622   1.36342  -0.93240
H    -2.17736   0.27862   1.98194
H    -3.37966   1.41905   1.33520
H    -3.24442  -0.20181   0.63259
H    -0.19654   1.72615   1.51934
H    -0.08642   3.71543  -0.28159
H     0.13367   2.43843  -1.49799
H     1.36697   2.70485  -0.23534
28

C     2.57822   0.06811   1.95611
C     2.22379   0.23563   0.50694
O     2.92992   0.81908  -0.31928
C     0.96622  -0.36121   0.08645
O     0.16691  -1.08485   0.82942
C    -0.92456  -1.54474   0.02835
O    -1.78507  -2.27834   0.49269
C    -0.64836  -0.98066  -1.23680
C    -1.40370  -1.05847  -2.50104
O     0.50411  -0.29109  -1.13966
C    -1.70338   1.30305   0.14526
C    -2.67558   0.63743   1.08054
C    -0.57461   1.89349   0.48284
C     0.28184   2.71671  -0.44891
H     2.54798  -1.00746   2.20900
H     3.58030   0.46773   2.12633
H     1.84631   0.57328   2.60076
H    -0.95861  -1.84251  -3.10679
H    -1.41319  -0.11538  -3.05983
H    -2.45283  -1.34306  -2.27091
H    -2.01685   1.36288  -0.93177
H    -2.17751   0.28013   1.98317
H    -3.38367   1.41661   1.33633
H    -3.24175  -0.20336   0.63265
H    -0.19632   1.72826   1.51957
H    -0.08156   3.71909  -0.28340
H     0.13179   2.43914  -1.49821
H     1.36714   2.70165  -0.23660
28

C     2.57861   0.06885   1.95693
C     2.22638   0.23247   0.50644
O     2.93069   0.82157  -0.31899
C     0.97974  -0.38378   0.08183
O     0.16829  -1.08764   0.82690
C    -0.92473  -1.54896   0.02523
O    -1.78709  -2.27913   0.49315
C    -0.64099  -0.99441  -1.24141
C    -1.40199  -1.05941  -2.50372
O     0.50403  -0.29385  -1.13721
C    -1.70983   1.32089   0.15366
C    -2.67798   0.63889   1.08424
C    -0.59099   1.91681   0.48693
C     0.28121   2.72133  -0.45088
H     2.54849  -1.00704   2.21011
H     3.58019   0.46849   2.12657
H     1.84612   0.57385   2.60040
H    -0.95991  -1.84205  -3.10995
H    -1.41244  -0.11443  -3.05870
H    -2.45240  -1.34262  -2.27094
H    -2.01748   1.36233  -0.93114
H    -2.17765   0.28164   1.98440
H    -3.38768   1.41416   1.33746
H    -3.23907  -0.20490   0.63272
H    -0.19610   1.73037   1.51980
H    -0.07670   3.72275  -0.28522
H     0.12990   2.43986  -1.49844
H     1.36731   2.69846  -0.23785
28

C     2.57822   0.06811   1.95611
C     2.22379   0.23563   0.50694
O     2.92992   0.81908  -0.31928
C     0.96622  -0.36121   0.08645
O     0.16691  -1.08485   0.82942
C    -0.92456  -1.54474   0.02835
O    -1.78507  -2.27834   0.49269
C    -0.64836  -0.98066  -1.23680
C    -1.40370  -1.05847  -2.50104
O     0.50411  -0.29109  -1.13966
C    -1.70338   1.30305   0.14526
C    -2.67558   0.63743   1.08054
C    -0.57461   1.89349   0.48284
C     0.28184   2.71671  -0.44891
H     2.54798  -1.00746   2.20900
H     3.58030   0.46773   2.12633
H     1.84631   0.57328   2.60076
H    -0.95861  -1.84251  -3.10679
H    -1.41319  -0.11538  -3.05983
H    -2.45283  -1.34306  -2.27091
H    -2.01685   1.36288  -0.93177
H    -2.17751   0.28013   1.98317
H    -3.38367   1.41661   1.33633
H    -3.24175  -0.20336   0.63265
H    -0.19632   1.72826   1.51957
H    -0.08156   3.71909  -0.28340
H     0.13179   2.43914  -1.49821
H     1.36714   2.70165  -0.23660
28

C     2.57784   0.06737   1.95530
C     2.22121   0.23878   0.50743
O     2.92914   0.81659  -0.31957
C     0.95270  -0.33863   0.09107
O     0.16553  -1.08205   0.83194
C    -0.92438  -1.54051   0.03148
O    -1.78305  -2.27754   0.49224
C    -0.65572  -0.96690  -1.23219
C    -1.40540  -1.05753  -2.49837
O     0.50419  -0.28833  -1.14212
C    -1.69693   1.28521   0.13685
C    -2.67319   0.63597   1.07684
C    -0.55824   1.87016   0.47874
C     0.28246   2.71210  -0.44694
H     2.54747  -1.00787   2.20788
H     3.58041   0.46696   2.12609
H     1.84649   0.57270   2.60113
H    -0.95731  -1.84296  -3.10363
H    -1.41394  -0.11633  -3.06095
H    -2.45327  -1.34350  -2.27089
H    -2.01622   1.36342  -0.93240
H    -2.17736   0.27862   1.98194
H    -3.37966   1.41905   1.33520
H    -3.24442  -0.20181   0.63259
H    -0.19654   1.72615   1.51934
H    -0.08642   3.71543  -0.28159
H     0.13367   2.43843  -1.49799
H     1.36697   2.70485  -0.23534
28

C     2.57745   0.06663   1.95448
C     2.21862   0.24194   0.50793
O     2.92837   0.81410  -0.31986
C     0.93918  -0.31606   0.09568
O     0.16414  -1.07925   0.83446
C    -0.92421  -1.53629   0.03460
O    -1.78102  -2.27674   0.49178
C    -0.66309  -0.95315  -1.22758
C    -1.40711  -1.05659  -2.49569
O     0.50426  -0.28557  -1.14457
C    -1.69048   1.26737   0.12844
C    -2.67080   0.63451   1.07315
C    -0.54186   1.84684   0.47465
C     0.28309   2.70748  -0.44497
H     2.54696  -1.00829   2.20676
H     3.58053   0.46620   2.12585
H     1.84668   0.57213   2.60150
H    -0.95601  -1.84342  -3.10046
H    -1.41469  -0.11728  -3.06208
H    -2.45370  -1.34394  -2.27086
H    -2.01559   1.36397  -0.93302
H    -2.17721   0.27711   1.98071
H    -3.37565   1.42150   1.33407
H    -3.24710  -0.20027   0.63252
H    -0.19675   1.72404   1.51911
H    -0.09128   3.71178  -0.27977
H     0.13556   2.43771  -1.49776
H     1.36679   2.70804  -0.23409
28

C     2.57706   0.06589   1.95366
C     2.21604   0.24509   0.50842
O     2.92760   0.81161  -0.32015
C     0.92566  -0.29349   0.10030
O     0.16276  -1.07645   0.83697
C    -0.92403  -1.53206   0.03772
O    -1.77900  -2.27595   0.49133
C    -0.67046  -0.93939  -1.22297
C    -1.40882  -1.05565  -2.49301
O     0.50434  -0.28281  -1.14702
C    -1.68403   1.24952   0.12003
C    -2.66840   0.63304   1.06945
C    -0.52548   1.82351   0.47055
C     0.28371   2.70287  -0.44299
H     2.54644  -1.00871   2.20564
H     3.58064   0.46544   2.12561
H     1.84687   0.57156   2.60187
H    -0.95471  -1.84388  -3.09730
H    -1.41545  -0.11824  -3.06320
H    -2.45413  -1.34438  -2.27083
H    -2.01496   1.36452  -0.93365
H    -2.17707   0.27559   1.97948
H    -3.37163   1.42395   1.33293
H    -3.24977  -0.19873   0.63245
H    -0.19697   1.72193   1.51888
H    -0.09615   3.70812  -0.27796
H     0.13744   2.43699  -1.49754
H     1.36662   2.71124  -0.23284
28

C     2.57668   0.06514   1.95285
C     2.21345   0.24825   0.50891
O     2.92683   0.80912  -0.32044
C     0.91214  -0.27091   0.10492
O     0.16138  -1.07365   0.83949
C    -0.92386  -1.52783   0.04084
O    -1.77698  -2.27515   0.49087
C    -0.67782  -0.92564  -1.21836
C    -1.41052  -1.05471  -2.49034
O     0.50441  -0.28005  -1.14948
C    -1.67758   1.23168   0.11162
C    -2.66601   0.63158   1.06575
C    -0.50911   1.80019   0.46645
C     0.28434   2.69825  -0.44102
H     2.54593  -1.00913   2.20452
H     3.58075   0.46467   2.12537
H     1.84705   0.57099   2.60224
H    -0.95341  -1.84433  -3.09414
H    -1.41620  -0.11919  -3.06433
H    -2.45457  -1.34482  -2.27081
H    -2.01432   1.36507  -0.93428
H    -2.17692   0.27408   1.97825
H    -3.36762   1.42639   1.33180
H    -3.25244  -0.19719   0.63238
H    -0.19718   1.71982   1.51865
H    -0.10101   3.70446  -0.27615
H     0.13933   2.43628  -1.49731
H     1.36645   2.71443  -0.23158
28

C     2.57629   0.06440   1.95203
C     2.21087   0.25140   0.50941
O     2.92605   0.80662  -0.32073
C     0.89862  -0.24834   0.10954
O     0.16000  -1.07086   0.84201
C    -0.92369  -1.52361   0.04397
O    -1.77496  -2.27436   0.49041
C    -0.68519  -0.91188  -1.21375
C    -1.41223  -1.05378  -2.48766
O     0.50449  -0.27729  -1.15193
C    -1.67113   1.21384   0.10321
C    -2.66361   0.63012   1.06205
C    -0.49273   1.77687   0.46236
C     0.28496   2.69363  -0.43905
H     2.54542  -1.00955   2.20340
H     3.58087   0.46391   2.12513
H     1.84724   0.57041   2.60260
H    -0.95211  -1.84479  -3.09097
H    -1.41695  -0.12014  -3.06545
H    -2.45500  -1.34526  -2.27078
H    -2.01369   1.36562  -0.93490
H    -2.17677   0.27257   1.97702
H    -3.36361   1.42884   1.33067
H    -3.25512  -0.19564   0.63232
H    -0.19740   1.71771   1.51842
H    -0.10587   3.70080  -0.27433
H     0.14121   2.43556  -1.49709
H     1.36628   2.71762  -0.23033
28

C     2.57590   0.06366   1.95121
C     2.20828   0.25456   0.50990
O     2.92528   0.80413  -0.32102
C     0.88510  -0.22577   0.11416
O     0.15861  -1.06806   0.84452
C    -0.92351  -1.51938   0.04709
O    -1.77294  -2.27356   0.48996
C    -0.69255  -0.89813  -1.20914
C    -1.41393  -1.05284  -2.48498
O     0.50456  -0.27453  -1.15438
C    -1.66468   1.19599   0.09481
C    -2.66122   0.62866   1.05836
C    -0.47636   1.75354   0.45826
C     0.28559   2.68902  -0.43708
H     2.54491  -1.00997   2.20228
H     3.58098   0.46315   2.12489
H     1.84743   0.56984   2.60297
H    -0.95081  -1.84525  -3.08781
H    -1.41770  -0.12109  -3.06658
H    -2.45543  -1.34570  -2.27076
H    -2.01306   1.36617  -0.93553
H    -2.17663   0.27105   1.97579
H    -3.35959   1.43128   1.32953
H    -3.25779  -0.19410   0.63225
H    -0.19761   1.71560   1.51819
H    -0.11073   3.69714  -0.27252
H     0.14310   2.43484  -1.49686
H     1.36611   2.72082  -0.22908
28

C     2.57552   0.06292   1.95040
C     2.20570   0.25771   0.51040
O     2.92451   0.80164  -0.32131
C     0.87158  -0.20319   0.11878
O     0.15723  -1.06526   0.84704
C    -0.92334  -1.51515   0.05021
O    -1.77092  -2.27276   0.48950
C    -0.69992  -0.88437  -1.20454
C    -1.41564  -1.05190  -2.48231
O     0.50464  -0.27177  -1.15684
C    -1.65823   1.17815   0.08640
C    -2.65883   0.62719   1.05466
C    -0.45998   1.73022   0.45416
C     0.28621   2.68440  -0.43511
H     2.54440  -1.01039   2.20116
H     3.58109   0.46238   2.12466
H     1.84761   0.56927   2.60334
H    -0.94951  -1.84570  -3.08465
H    -1.41845  -0.12205  -3.06770
H    -2.45587  -1.34613  -2.27073
H    -2.01243   1.36672  -0.93616
H    -2.17648   0.26954   1.97456
H    -3.35558   1.43373   1.32840
H    -3.26046  -0.19256   0.63218
H    -0.19783   1.71349   1.51796
H    -0.11559   3.69349  -0.27070
H     0.14498   2.43413  -1.49664
H     1.36593   2.72401  -0.22782
28

C     2.57513   0.06218   1.94958
C     2.20311   0.26087   0.51089
O     2.92374   0.79915  -0.32159
C     0.85806  -0.18062   0.12340
O     0.15585  -1.06246   0.84956
C    -0.92316  -1.51093   0.05333
O    -1.76890  -2.27197   0.48904
C    -0.70729  -0.87062  -1.19993
C    -1.41734  -1.05096  -2.47963
O     0.50471  -0.26901  -1.15929
C    -1.65178   1.16031   0.07799
C    -2.65643   0.62573   1.05096
C    -0.44360   1.70689   0.45007
C     0.28684   2.67978  -0.43313
H     2.54388  -1.01081   2.20005
H     3.58121   0.46162   2.12442
H     1.84780   0.56869   2.60371
H    -0.94821  -1.84616  -3.08148
H    -1.41921  -0.12300  -3.06883
H    -2.45630  -1.34657  -2.27071
H    -2.01180   1.36727  -0.93678
H    -2.17633   0.26803   1.97333
H    -3.35157   1.43617   1.32727
H    -3.26314  -0.19102   0.63212
H    -0.19804   1.71138   1.51773
H    -0.12045   3.68983  -0.26889
H     0.14687   2.43341  -1.49641
H     1.36576   2.72721  -0.22657
28

C     2.57475   0.06144   1.94877
C     2.20053   0.26402   0.51138
O     2.92296   0.79666  -0.32188
C     0.84454  -0.15805   0.12802
O     0.15447  -1.05966   0.85208
C    -0.92299  -1.50670   0.05646
O    -1.76688  -2.27117   0.48859
C    -0.71465  -0.85687  -1.19532
C    -1.41905  -1.05002  -2.47695
O     0.50479  -0.26625  -1.16174
C    -1.64533   1.14247   0.06958
C    -2.65404   0.62427   1.04726
C    -0.42723   1.68357   0.44597
C     0.28746   2.67517  -0.43116
H     2.54337  -1.01123   2.19893
H     3.58132   0.46086   2.12418
H     1.84799   0.56812   2.60407
H    -0.94691  -1.84662  -3.07832
H    -1.41996  -0.12395  -3.06995
H    -2.45673  -1.34701  -2.27068
H    -2.01116   1.36782  -0.93741
H    -2.17619   0.26652   1.97210
H    -3.34756   1.43862   1.32614
H    -3.26581  -0.18947   0.63205
H    -0.19826   1.70927   1.51750
H    -0.12532   3.68617  -0.26707
H     0.14875   2.43269  -1.49619
H     1.36559   2.73040  -0.22532
28

C     2.57436   0.06070   1.94795
C     2.19794   0.26718   0.51188
O     2.92219   0.79417  -0.32217
C     0.83102  -0.13547   0.13264
O     0.15308  -1.05687   0.85459
C    -0.92281  -1.50247   0.05958
O    -1.76486  -2.27038   0.48813
C    -0.72202  -0.84311  -1.19071
C    -1.42075  -1.04908  -2.47428
O     0.50486  -0.26349  -1.16420
C    -1.63888   1.12462   0.06117
C    -2.65164   0.62281   1.04357
C    -0.41085   1.66024   0.44187
C     0.28809   2.67055  -0.42919
H     2.54286  -1.01165   2.19781
H     3.58143   0.46009   2.12394
H     1.84817   0.56755   2.60444
H    -0.94561  -1.84707  -3.07516
H    -1.42071  -0.12491  -3.07108
H    -2.45716  -1.34745  -2.27065
H    -2.01053   1.36837  -0.93804
H    -2.17604   0.26500   1.97087
H    -3.34354   1.44106   1.32500
H    -3.26849  -0.18793   0.63198
H    -0.19847   1.70716   1.51727
H    -0.13018   3.68251  -0.26526
H     0.15064   2.43198  -1.49597
H     1.36542   2.73360  -0.22407
28

C     2.57397   0.05996   1.94713
C     2.19536   0.27033   0.51237
O     2.92142   0.79168  -0.32246
C     0.81750  -0.11290   0.13725
O     0.15170  -1.05407   0.85711
C    -0.92264  -1.49825   0.06270
O    -1.76284  -2.26958   0.48768
C    -0.72939  -0.82936  -1.18610
C    -1.42246  -1.04814  -2.47160
O     0.50494  -0.26073  -1.16665
C    -1.63243   1.10678   0.05276
C    -2.64925   0.62134   1.03987
C    -0.39447   1.63692   0.43778
C     0.28871   2.66593  -0.42722
H     2.54235  -1.01207   2.19669
H     3.58155   0.45933   2.12370
H     1.84836   0.56698   2.60481
H    -0.94430  -1.84753  -3.07200
H    -1.42146  -0.12586  -3.07220
H    -2.45760  -1.34789  -2.27063
H    -2.00990   1.36892  -0.93866
H    -2.17589   0.26349   1.96964
H    -3.33953   1.44351   1.32387
H    -3.27116  -0.18639   0.63192
H    -0.19869   1.70505   1.51704
H    -0.13504   3.67886  -0.26345
H     0.15252   2.43126  -1.49574
H     1.36524   2.73679  -0.22281
28

C     2.57359   0.05922   1.94632
C     2.19277   0.27349   0.51287
O     2.92065   0.78919  -0.32275
C     0.80398  -0.09033   0.14187
O     0.15032  -1.05127   0.85963
C    -0.92246  -1.49402   0.06582
O    -1.76082  -2.26878   0.48722
C    -0.73675  -0.81560  -1.18149
C    -1.42416  -1.04720  -2.46892
O     0.50501  -0.25797  -1.16910
C    -1.62598   1.08894   0.04435
C    -2.64686   0.61988   1.03617
C    -0.37810   1.61359   0.43368
C     0.28934   2.66132  -0.42525
H     2.54183  -1.01249   2.19557
H     3.58166   0.45857   2.12346
H     1.84854   0.56640   2.60518
H    -0.94300  -1.84799  -3.06883
H    -1.42221  -0.12681  -3.07333
H    -2.45803  -1.34833  -2.27060
H    -2.00927   1.36947  -0.93929
H    -2.17575   0.26198   1.96841
H    -3.33552   1.44595   1.32274
H    -3.27383  -0.18485   0.63185
H    -0.19890   1.70294   1.51681
H    -0.13990   3.67520  -0.26163
H     0.15441   2.43054  -1.49552
H     1.36507   2.73999  -0.22156
28

C     2.57320   0.05848   1.94550
C     2.19019   0.27664   0.51336
O     2.91987   0.78670  -0.32304
C     0.79046  -0.06775   0.14649
O     0.14894  -1.04847   0.86214
C    -0.92229  -1.48979   0.06895
O    -1.75879  -2.26799   0.48676
C    -0.74412  -0.80185  -1.17688
C    -1.42587  -1.04626  -2.46625
O     0.50509  -0.25521  -1.17156
C    -1.61953   1.07109   0.03595
C    -2.64446   0.61842   1.03247
C    -0.36172   1.59027   0.42958
C     0.28996   2.65670  -0.42327
H     2.54132  -1.01291   2.19445
H     3.58177   0.45780   2.12322
H     1.84873   0.56583   2.60555
H    -0.94170  -1.84844  -3.06567
H    -1.42297  -0.12776  -3.07445
H    -2.45846  -1.34877  -2.27058
H    -2.00864   1.37002  -0.93992
H    -2.17560   0.26047   1.96718
H    -3.33151   1.44840   1.32160
H    -3.27651  -0.18330   0.63178
H    -0.19912   1.70083   1.51659
H    -0.14476   3.67154  -0.25982
H     0.15629   2.42983  -1.49529
H     1.36490   2.74318  -0.22031
28

C     2.57281   0.05774   1.94468
C     2.18760   0.27980   0.51385
O     2.91910   0.78421  -0.32333
C     0.77694  -0.04518   0.15111
O     0.14755  -1.04567   0.86466
C    -0.92212  -1.48557   0.07207
O    -1.75677  -2.26719   0.48631
C    -0.75148  -0.78809  -1.17227
C    -1.42757  -1.04532  -2.46357
O     0.50516  -0.25245  -1.17401
C    -1.61308   1.05325   0.02754
C    -2.64207   0.61696   1.02877
C    -0.34534   1.56694   0.42549
C     0.29059   2.65208  -0.42130
H     2.54081  -1.01333   2.19333
H     3.58189   0.45704   2.12298
H     1.84892   0.56526   2.60591
H    -0.94040  -1.84890  -3.06251
H    -1.42372  -0.12872  -3.07558
H    -2.45890  -1.34920  -2.27055
H    -2.00800   1.37057  -0.94054
H    -2.17545   0.25895   1.96595
H    -3.32749   1.45084   1.32047
H    -3.27918  -0.18176   0.63171
H    -0.19934   1.69872   1.51636
H    -0.14962   3.66788  -0.25800
H     0.15817   2.42911  -1.49507
H     1.36473   2.74638  -0.21905
28

C     2.57243   0.05700   1.94387
C     2.18502   0.28295   0.51435
O     2.91833   0.78172  -0.32362
C     0.76342  -0.02261   0.15573
O     0.14617  -1.04288   0.86718
C    -0.92194  -1.48134   0.07519
O    -1.75475  -2.26640   0.48585
C    -0.75885  -0.77434  -1.16766
C    -1.42928  -1.04438  -2.46090
O     0.50524  -0.24969  -1.17646
C    -1.60663   1.03541   0.01913
C    -2.63967   0.61549   1.02508
C    -0.32897   1.54362   0.42139
C     0.29121   2.64747  -0.41933
H     2.54030  -1.01375   2.19221
H     3.58200   0.45628   2.12275
H     1.84910   0.56468   2.60628
H    -0.93910  -1.84936  -3.05934
H    -1.42447  -0.12967  -3.07670
H    -2.45933  -1.34964  -2.27053
H    -2.00737   1.37112  -0.94117
H    -2.17531   0.25744   1.96472
H    -3.32348   1.45329   1.31934
H    -3.28186  -0.18022   0.63165
H    -0.19955   1.69661   1.51613
H    -0.15449   3.66422  -0.25619
H     0.16006   2.42839  -1.49484
H     1.36455   2.74957  -0.21780
28

C     2.57204   0.05626   1.94305
C     2.18243   0.28611   0.51484
O     2.91756   0.77923  -0.32391
C     0.74991  -0.00003   0.16035
O     0.14479  -1.04008   0.86970
C    -0.92177  -1.47712   0.07831
O    -1.75273  -2.26560   0.48539
C    -0.76622  -0.76058  -1.16305
C    -1.43098  -1.04345  -2.45822
O     0.50531  -0.24693  -1.17892
C    -1.60018   1.01757   0.01072
C    -2.63728   0.61403   1.02138
C    -0.31259   1.52029   0.41730
C     0.29184   2.64285  -0.41736
H     2.53978  -1.01417   2.19109
H     3.58211   0.45551   2.12251
H     1.84929   0.56411   2.60665
H    -0.93780  -1.84981  -3.05618
H    -1.42522  -0.13062  -3.07783
H    -2.45976  -1.35008  -2.27050
H    -2.00674   1.37167  -0.94180
H    -2.17516   0.25593   1.96349
H    -3.31947   1.45574   1.31821
H    -3.28453  -0.17868   0.63158
H    -0.19977   1.69450   1.51590
H    -0.15935   3.66057  -0.25437
H     0.16194   2.42768  -1.49462
H     1.36438   2.75276  -0.21655
28

C     2.57166   0.05552   1.94224
C     2.17985   0.28926   0.51534
O     2.91678   0.77674  -0.32420
C     0.73639   0.02254   0.16497
O     0.14341  -1.03728   0.87221
C    -0.92159  -1.47289   0.08144
O    -1.75071  -2.26481   0.48494
C    -0.77358  -0.74683  -1.15844
C    -1.43269  -1.04251  -2.45554
O     0.50539  -0.24417  -1.18137
C    -1.59373   0.99972   0.00231
C    -2.63488   0.61257   1.01768
C    -0.29621   1.49697   0.41320
C     0.29246   2.63824  -0.41539
H     2.53927  -1.01459   2.18998
H     3.58223   0.45475   2.12227
H     1.84948   0.56354   2.60702
H    -0.93650  -1.85027  -3.05302
H    -1.42597  -0.13158  -3.07895
H    -2.46020  -1.35052  -2.27048
H    -2.00611   1.37221  -0.94242
H    -2.17501   0.25441   1.96226
H    -3.31545   1.45818   1.31707
H    -3.28720  -0.17713   0.63151
H    -0.19998   1.69239   1.51567
H    -0.16421   3.65691  -0.25256
H     0.16383   2.42696  -1.49439
H     1.36421   2.75596  -0.21529
28

C     2.57127   0.05478   1.94142
C     2.17726   0.29242   0.51583
O     2.91601   0.77425  -0.32449
C     0.72287   0.04511   0.16959
O     0.14202  -1.03448   0.87473
C    -0.92142  -1.46866   0.08456
O    -1.74869  -2.26401   0.48448
C    -0.78095  -0.73307  -1.15383
C    -1.43440  -1.04157  -2.45287
O     0.50547  -0.24141  -1.18382
C    -1.58728   0.98188  -0.00610
C    -2.63249   0.61111   1.01398
C    -0.27984   1.47365   0.40910
C     0.29308   2.63362  -0.41342
H     2.53876  -1.01501   2.18886
H     3.58234   0.45399   2.12203
H     1.84966   0.56297   2.60738
H    -0.93520  -1.85072  -3.04985
H    -1.42673  -0.13253  -3.08008
H    -2.46063  -1.35096  -2.27045
H    -2.00548   1.37276  -0.94305
H    -2.17487   0.25290   1.96103
H    -3.31144   1.46063   1.31594
H    -3.28988  -0.17559   0.63145
H    -0.20020   1.69028   1.51544
H    -0.16907   3.65325  -0.25075
H     0.16571   2.42624  -1.49417
H     1.36404   2.75915  -0.21404
