13

C -1.962566090 1.417265246 1.070052713
C -0.599002212 -2.780222258 -0.495305041
O 0.166222691 -3.722271026 -2.410247784
C 0.310609219 -0.310556968 0.605276481
C 2.343608558 0.917654030 -1.007530028
H -1.382863840 3.113007469 2.087954805
H -3.421759200 0.477114197 2.186994009
H -2.807804171 2.009425157 -0.718073855
H -2.105854309 -3.730984629 0.620783082
H 1.098903331 -0.817517197 2.459144240
H 1.595178293 1.421706745 -2.862443580
H 3.046937145 2.634198131 -0.106747114
H 3.928545159 -0.361840261 -1.311776501

