13

C -1.470862150 1.700900268 -0.423422013
C -1.447057478 -1.239722869 -0.789450757
C 0.933077483 -1.569908781 -2.193824726
C 2.508410515 0.298712882 -0.744245220
N 0.799194431 1.355963419 1.219173193
C -0.415089871 -1.075617597 1.985827258
H -3.099423154 2.321969190 0.674178352
H -1.202316515 2.913630213 -2.068869705
H -3.102618775 -2.331633306 -1.322246566
H 0.872092582 -2.538742660 2.658726852
H 4.158651534 -0.631515687 0.085879341
H 3.230087416 1.764828210 -2.012865838
H -1.926605755 -0.758336455 3.348516061

