23

C     4.68110   0.14019  -0.54536
N     3.30037   0.53796  -0.60406
C     2.33779  -0.33815  -0.91079
O     2.47370  -1.52230  -1.19472
C     1.05553   0.35841  -0.95209
N     0.06272   0.98167  -1.18987
N    -1.02736   1.51061  -1.56904
C    -1.50337   2.54618  -0.90225
N    -2.05754   3.47759  -0.45492
C    -1.73934  -1.11567  -0.24916
C    -2.59426  -0.24058   0.63516
O    -3.83796  -0.24213   0.38810
O    -2.04612   0.41714   1.56893
C    -0.58726  -1.63732   0.09944
C     0.13160  -1.46111   1.42251
O    -0.23614  -2.30774   2.29245
O     1.04721  -0.60337   1.58017
H     5.24107   1.04760  -0.36730
H     4.81593  -0.57631   0.25394
H     4.95839  -0.30416  -1.50400
H     2.96940   1.47611  -0.34313
H    -2.14216  -1.27454  -1.26289
H     0.03637  -2.15746  -0.67790
23

C     4.67521   0.14170  -0.54668
N     3.29251   0.53763  -0.60544
C     2.33136  -0.34143  -0.90912
O     2.47468  -1.52463  -1.19407
C     1.03878   0.33850  -0.94194
N     0.07396   0.98840  -1.19132
N    -1.02873   1.49880  -1.55769
C    -1.50366   2.54149  -0.90245
N    -2.05641   3.47496  -0.45774
C    -1.73461  -1.10339  -0.25488
C    -2.59321  -0.23805   0.63482
O    -3.83623  -0.24481   0.38813
O    -2.04572   0.41707   1.57015
C    -0.57313  -1.61867   0.09037
C     0.13504  -1.45707   1.42143
O    -0.23932  -2.30640   2.28332
O     1.05127  -0.60253   1.58753
H     5.23903   1.04827  -0.36767
H     4.81458  -0.57579   0.25357
H     4.95700  -0.30359  -1.50433
H     2.96680   1.47546  -0.34224
H    -2.14135  -1.27276  -1.26373
H     0.03618  -2.15720  -0.67833
23

C     4.66932   0.14321  -0.54800
N     3.28465   0.53731  -0.60682
C     2.32492  -0.34471  -0.90744
O     2.47566  -1.52695  -1.19341
C     1.02203   0.31859  -0.93178
N     0.08520   0.99514  -1.19276
N    -1.03009   1.48698  -1.54634
C    -1.50395   2.53680  -0.90265
N    -2.05529   3.47232  -0.46057
C    -1.72988  -1.09111  -0.26060
C    -2.59216  -0.23552   0.63448
O    -3.83451  -0.24749   0.38817
O    -2.04532   0.41700   1.57136
C    -0.55900  -1.60003   0.08130
C     0.13847  -1.45304   1.42034
O    -0.24250  -2.30505   2.27419
O     1.05533  -0.60170   1.59488
H     5.23700   1.04895  -0.36804
H     4.81322  -0.57527   0.25321
H     4.95560  -0.30303  -1.50467
H     2.96419   1.47481  -0.34135
H    -2.14055  -1.27098  -1.26458
H     0.03600  -2.15694  -0.67877
23

C     4.66343   0.14472  -0.54932
N     3.27679   0.53699  -0.60820
C     2.31848  -0.34800  -0.90576
O     2.47664  -1.52928  -1.19276
C     1.00528   0.29868  -0.92162
N     0.09644   1.00187  -1.19421
N    -1.03146   1.47516  -1.53498
C    -1.50424   2.53211  -0.90285
N    -2.05417   3.46968  -0.46339
C    -1.72514  -1.07883  -0.26632
C    -2.59112  -0.23300   0.63414
O    -3.83279  -0.25017   0.38821
O    -2.04493   0.41693   1.57258
C    -0.54487  -1.58139   0.07223
C     0.14191  -1.44900   1.41926
O    -0.24568  -2.30371   2.26505
O     1.05938  -0.60086   1.60224
H     5.23496   1.04962  -0.36841
H     4.81187  -0.57475   0.25284
H     4.95421  -0.30246  -1.50500
H     2.96159   1.47417  -0.34046
H    -2.13975  -1.26919  -1.26542
H     0.03581  -2.15668  -0.67920
23

C     4.65754   0.14623  -0.55065
N     3.26893   0.53667  -0.60958
C     2.31205  -0.35128  -0.90408
O     2.47762  -1.53161  -1.19210
C     0.98852   0.27877  -0.91146
N     0.10769   1.00860  -1.19565
N    -1.03282   1.46334  -1.52363
C    -1.50453   2.52742  -0.90305
N    -2.05305   3.46704  -0.46621
C    -1.72041  -1.06656  -0.27204
C    -2.59007  -0.23047   0.63380
O    -3.83107  -0.25285   0.38824
O    -2.04453   0.41686   1.57380
C    -0.53074  -1.56274   0.06317
C     0.14534  -1.44496   1.41818
O    -0.24885  -2.30236   2.25592
O     1.06344  -0.60002   1.60960
H     5.23292   1.05029  -0.36878
H     4.81051  -0.57423   0.25248
H     4.95281  -0.30189  -1.50534
H     2.95899   1.47352  -0.33957
H    -2.13894  -1.26741  -1.26627
H     0.03562  -2.15642  -0.67963
23

C     4.65165   0.14774  -0.55197
N     3.26107   0.53635  -0.61096
C     2.30561  -0.35457  -0.90241
O     2.47861  -1.53394  -1.19145
C     0.97177   0.25886  -0.90130
N     0.11893   1.01534  -1.19710
N    -1.03418   1.45153  -1.51227
C    -1.50483   2.52273  -0.90325
N    -2.05192   3.46441  -0.46903
C    -1.71567  -1.05428  -0.27776
C    -2.58902  -0.22794   0.63346
O    -3.82935  -0.25553   0.38828
O    -2.04413   0.41679   1.57502
C    -0.51661  -1.54410   0.05410
C     0.14878  -1.44092   1.41710
O    -0.25203  -2.30102   2.24679
O     1.06750  -0.59918   1.61695
H     5.23088   1.05097  -0.36915
H     4.80915  -0.57371   0.25211
H     4.95142  -0.30133  -1.50567
H     2.95638   1.47287  -0.33868
H    -2.13814  -1.26562  -1.26711
H     0.03543  -2.15616  -0.68007
23

C     4.64576   0.14925  -0.55329
N     3.25321   0.53602  -0.61234
C     2.29917  -0.35785  -0.90073
O     2.47959  -1.53627  -1.19079
C     0.95502   0.23895  -0.89114
N     0.13017   1.02207  -1.19854
N    -1.03555   1.43971  -1.50092
C    -1.50512   2.51803  -0.90345
N    -2.05080   3.46177  -0.47185
C    -1.71094  -1.04200  -0.28347
C    -2.58798  -0.22541   0.63312
O    -3.82762  -0.25821   0.38832
O    -2.04373   0.41672   1.57624
C    -0.50247  -1.52546   0.04503
C     0.15221  -1.43688   1.41602
O    -0.25521  -2.29967   2.23765
O     1.07155  -0.59834   1.62431
H     5.22885   1.05164  -0.36952
H     4.80780  -0.57319   0.25175
H     4.95002  -0.30076  -1.50601
H     2.95378   1.47222  -0.33779
H    -2.13734  -1.26384  -1.26796
H     0.03524  -2.15590  -0.68050
23

C     4.63987   0.15076  -0.55462
N     3.24535   0.53570  -0.61372
C     2.29274  -0.36113  -0.89905
O     2.48057  -1.53860  -1.19014
C     0.93827   0.21904  -0.88098
N     0.14141   1.02881  -1.19999
N    -1.03691   1.42789  -1.48957
C    -1.50541   2.51334  -0.90365
N    -2.04968   3.45913  -0.47467
C    -1.70620  -1.02973  -0.28919
C    -2.58693  -0.22288   0.63278
O    -3.82590  -0.26089   0.38835
O    -2.04333   0.41665   1.57745
C    -0.48834  -1.50681   0.03596
C     0.15565  -1.43284   1.41494
O    -0.25839  -2.29832   2.22852
O     1.07561  -0.59750   1.63167
H     5.22681   1.05232  -0.36989
H     4.80644  -0.57267   0.25138
H     4.94863  -0.30019  -1.50634
H     2.95117   1.47157  -0.33690
H    -2.13654  -1.26206  -1.26880
H     0.03506  -2.15564  -0.68093
23

C     4.63398   0.15227  -0.55594
N     3.23749   0.53538  -0.61511
C     2.28630  -0.36442  -0.89737
O     2.48155  -1.54093  -1.18948
C     0.92152   0.19913  -0.87082
N     0.15265   1.03554  -1.20143
N    -1.03827   1.41607  -1.47821
C    -1.50570   2.50865  -0.90385
N    -2.04856   3.45649  -0.47750
C    -1.70147  -1.01745  -0.29491
C    -2.58588  -0.22036   0.63244
O    -3.82418  -0.26357   0.38839
O    -2.04293   0.41658   1.57867
C    -0.47421  -1.48817   0.02690
C     0.15909  -1.42880   1.41386
O    -0.26157  -2.29698   2.21939
O     1.07967  -0.59667   1.63903
H     5.22477   1.05299  -0.37026
H     4.80509  -0.57215   0.25102
H     4.94724  -0.29962  -1.50668
H     2.94857   1.47093  -0.33601
H    -2.13573  -1.26027  -1.26965
H     0.03487  -2.15538  -0.68137
23

C     4.62808   0.15378  -0.55726
N     3.22963   0.53506  -0.61649
C     2.27986  -0.36770  -0.89570
O     2.48253  -1.54325  -1.18883
C     0.90477   0.17922  -0.86066
N     0.16390   1.04228  -1.20288
N    -1.03964   1.40426  -1.46686
C    -1.50600   2.50396  -0.90405
N    -2.04743   3.45386  -0.48032
C    -1.69673  -1.00517  -0.30063
C    -2.58483  -0.21783   0.63210
O    -3.82246  -0.26625   0.38842
O    -2.04253   0.41650   1.57989
C    -0.46008  -1.46953   0.01783
C     0.16252  -1.42476   1.41278
O    -0.26474  -2.29563   2.21025
O     1.08372  -0.59583   1.64638
H     5.22273   1.05367  -0.37063
H     4.80373  -0.57164   0.25065
H     4.94584  -0.29906  -1.50701
H     2.94597   1.47028  -0.33512
H    -2.13493  -1.25849  -1.27049
H     0.03468  -2.15512  -0.68180
23

C     4.62219   0.15529  -0.55858
N     3.22177   0.53474  -0.61787
C     2.27343  -0.37099  -0.89402
O     2.48351  -1.54558  -1.18817
C     0.88801   0.15931  -0.85050
N     0.17514   1.04901  -1.20432
N    -1.04100   1.39244  -1.45550
C    -1.50629   2.49927  -0.90425
N    -2.04631   3.45122  -0.48314
C    -1.69200  -0.99290  -0.30635
C    -2.58379  -0.21530   0.63176
O    -3.82073  -0.26893   0.38846
O    -2.04213   0.41643   1.58111
C    -0.44595  -1.45088   0.00876
C     0.16596  -1.42073   1.41170
O    -0.26792  -2.29429   2.20112
O     1.08778  -0.59499   1.65374
H     5.22069   1.05434  -0.37100
H     4.80237  -0.57112   0.25028
H     4.94445  -0.29849  -1.50735
H     2.94336   1.46963  -0.33423
H    -2.13413  -1.25670  -1.27134
H     0.03449  -2.15486  -0.68223
23

C     4.61630   0.15680  -0.55991
N     3.21391   0.53442  -0.61925
C     2.26699  -0.37427  -0.89234
O     2.48449  -1.54791  -1.18752
C     0.87126   0.13940  -0.84035
N     0.18638   1.05575  -1.20577
N    -1.04237   1.38062  -1.44415
C    -1.50658   2.49458  -0.90445
N    -2.04519   3.44858  -0.48596
C    -1.68726  -0.98062  -0.31207
C    -2.58274  -0.21277   0.63143
O    -3.81901  -0.27161   0.38850
O    -2.04174   0.41636   1.58233
C    -0.43182  -1.43224  -0.00031
C     0.16939  -1.41669   1.41062
O    -0.27110  -2.29294   2.19199
O     1.09183  -0.59415   1.66110
H     5.21866   1.05502  -0.37137
H     4.80102  -0.57060   0.24992
H     4.94305  -0.29792  -1.50768
H     2.94076   1.46898  -0.33334
H    -2.13332  -1.25492  -1.27218
H     0.03430  -2.15460  -0.68267
23

C     4.61041   0.15831  -0.56123
N     3.20605   0.53409  -0.62063
C     2.26055  -0.37756  -0.89067
O     2.48547  -1.55024  -1.18686
C     0.85451   0.11949  -0.83019
N     0.19762   1.06248  -1.20721
N    -1.04373   1.36880  -1.43280
C    -1.50687   2.48989  -0.90465
N    -2.04407   3.44594  -0.48878
C    -1.68253  -0.96834  -0.31778
C    -2.58169  -0.21024   0.63109
O    -3.81729  -0.27428   0.38853
O    -2.04134   0.41629   1.58354
C    -0.41768  -1.41360  -0.00938
C     0.17283  -1.41265   1.40953
O    -0.27428  -2.29160   2.18285
O     1.09589  -0.59331   1.66845
H     5.21662   1.05569  -0.37174
H     4.79966  -0.57008   0.24955
H     4.94166  -0.29736  -1.50801
H     2.93816   1.46834  -0.33245
H    -2.13252  -1.25314  -1.27303
H     0.03412  -2.15434  -0.68310
23

C     4.60452   0.15982  -0.56255
N     3.19819   0.53377  -0.62201
C     2.25412  -0.38084  -0.88899
O     2.48645  -1.55257  -1.18621
C     0.83776   0.09958  -0.82003
N     0.20887   1.06922  -1.20866
N    -1.04509   1.35699  -1.42144
C    -1.50716   2.48520  -0.90486
N    -2.04294   3.44331  -0.49160
C    -1.67779  -0.95606  -0.32350
C    -2.58065  -0.20771   0.63075
O    -3.81557  -0.27696   0.38857
O    -2.04094   0.41622   1.58476
C    -0.40355  -1.39495  -0.01844
C     0.17626  -1.40861   1.40845
O    -0.27746  -2.29025   2.17372
O     1.09995  -0.59247   1.67581
H     5.21458   1.05637  -0.37211
H     4.79830  -0.56956   0.24919
H     4.94026  -0.29679  -1.50835
H     2.93555   1.46769  -0.33156
H    -2.13172  -1.25135  -1.27387
H     0.03393  -2.15408  -0.68353
23

C     4.59863   0.16133  -0.56387
N     3.19033   0.53345  -0.62339
C     2.24768  -0.38412  -0.88731
O     2.48744  -1.55490  -1.18555
C     0.82101   0.07967  -0.80987
N     0.22011   1.07595  -1.21010
N    -1.04646   1.34517  -1.41009
C    -1.50746   2.48051  -0.90506
N    -2.04182   3.44067  -0.49443
C    -1.67306  -0.94379  -0.32922
C    -2.57960  -0.20519   0.63041
O    -3.81384  -0.27964   0.38861
O    -2.04054   0.41615   1.58598
C    -0.38942  -1.37631  -0.02751
C     0.17970  -1.40457   1.40737
O    -0.28063  -2.28891   2.16458
O     1.10400  -0.59164   1.68317
H     5.21254   1.05704  -0.37248
H     4.79695  -0.56904   0.24882
H     4.93887  -0.29622  -1.50868
H     2.93295   1.46704  -0.33067
H    -2.13092  -1.24957  -1.27472
H     0.03374  -2.15382  -0.68397
23

C     4.59274   0.16284  -0.56520
N     3.18247   0.53313  -0.62477
C     2.24124  -0.38741  -0.88563
O     2.48842  -1.55723  -1.18490
C     0.80426   0.05976  -0.79971
N     0.23135   1.08268  -1.21155
N    -1.04782   1.33335  -1.39873
C    -1.50775   2.47582  -0.90526
N    -2.04070   3.43803  -0.49725
C    -1.66832  -0.93151  -0.33494
C    -2.57855  -0.20266   0.63007
O    -3.81212  -0.28232   0.38864
O    -2.04014   0.41608   1.58720
C    -0.37529  -1.35767  -0.03658
C     0.18313  -1.40053   1.40629
O    -0.28381  -2.28756   2.15545
O     1.10806  -0.59080   1.69053
H     5.21050   1.05772  -0.37285
H     4.79559  -0.56852   0.24846
H     4.93747  -0.29566  -1.50902
H     2.93034   1.46639  -0.32978
H    -2.13011  -1.24778  -1.27556
H     0.03355  -2.15356  -0.68440
23

C     4.58685   0.16435  -0.56652
N     3.17461   0.53281  -0.62615
C     2.23481  -0.39069  -0.88396
O     2.48940  -1.55955  -1.18424
C     0.78750   0.03985  -0.78955
N     0.24259   1.08942  -1.21299
N    -1.04918   1.32153  -1.38738
C    -1.50804   2.47113  -0.90546
N    -2.03958   3.43540  -0.50007
C    -1.66359  -0.91923  -0.34066
C    -2.57750  -0.20013   0.62973
O    -3.81040  -0.28500   0.38868
O    -2.03974   0.41601   1.58842
C    -0.36116  -1.33902  -0.04565
C     0.18657  -1.39649   1.40521
O    -0.28699  -2.28622   2.14632
O     1.11212  -0.58996   1.69788
H     5.20847   1.05839  -0.37322
H     4.79424  -0.56800   0.24809
H     4.93608  -0.29509  -1.50935
H     2.92774   1.46574  -0.32889
H    -2.12931  -1.24600  -1.27640
H     0.03336  -2.15329  -0.68484
23

C     4.58096   0.16586  -0.56784
N     3.16675   0.53248  -0.62753
C     2.22837  -0.39398  -0.88228
O     2.49038  -1.56188  -1.18359
C     0.77075   0.01994  -0.77939
N     0.25383   1.09615  -1.21444
N    -1.05055   1.30972  -1.37603
C    -1.50833   2.46643  -0.90566
N    -2.03845   3.43276  -0.50289
C    -1.65886  -0.90696  -0.34638
C    -2.57646  -0.19760   0.62939
O    -3.80868  -0.28768   0.38872
O    -2.03934   0.41593   1.58963
C    -0.34703  -1.32038  -0.05471
C     0.19000  -1.39246   1.40413
O    -0.29017  -2.28487   2.13718
O     1.11617  -0.58912   1.70524
H     5.20643   1.05907  -0.37359
H     4.79288  -0.56748   0.24773
H     4.93468  -0.29452  -1.50969
H     2.92514   1.46510  -0.32800
H    -2.12851  -1.24422  -1.27725
H     0.03318  -2.15303  -0.68527
23

C     4.57506   0.16738  -0.56916
N     3.15889   0.53216  -0.62891
C     2.22193  -0.39726  -0.88060
O     2.49136  -1.56421  -1.18293
C     0.75400   0.00003  -0.76923
N     0.26508   1.10289  -1.21588
N    -1.05191   1.29790  -1.36467
C    -1.50863   2.46174  -0.90586
N    -2.03733   3.43012  -0.50571
C    -1.65412  -0.89468  -0.35209
C    -2.57541  -0.19507   0.62905
O    -3.80696  -0.29036   0.38875
O    -2.03895   0.41586   1.59085
C    -0.33290  -1.30174  -0.06378
C     0.19344  -1.38842   1.40305
O    -0.29335  -2.28352   2.12805
O     1.12023  -0.58828   1.71260
H     5.20439   1.05974  -0.37396
H     4.79152  -0.56696   0.24736
H     4.93329  -0.29396  -1.51002
H     2.92253   1.46445  -0.32711
H    -2.12770  -1.24243  -1.27809
H     0.03299  -2.15277  -0.68570
23

C     4.56917   0.16889  -0.57049
N     3.15103   0.53184  -0.63030
C     2.21550  -0.40054  -0.87892
O     2.49234  -1.56654  -1.18228
C     0.73725  -0.01988  -0.75907
N     0.27632   1.10962  -1.21733
N    -1.05328   1.28608  -1.35332
C    -1.50892   2.45705  -0.90606
N    -2.03621   3.42748  -0.50853
C    -1.64939  -0.88240  -0.35781
C    -2.57436  -0.19255   0.62871
O    -3.80523  -0.29304   0.38879
O    -2.03855   0.41579   1.59207
C    -0.31876  -1.28309  -0.07285
C     0.19688  -1.38438   1.40197
O    -0.29652  -2.28218   2.11892
O     1.12429  -0.58744   1.71995
H     5.20235   1.06042  -0.37433
H     4.79017  -0.56644   0.24700
H     4.93189  -0.29339  -1.51036
H     2.91993   1.46380  -0.32622
H    -2.12690  -1.24065  -1.27894
H     0.03280  -2.15251  -0.68614
23

C     4.56328   0.17040  -0.57181
N     3.14317   0.53152  -0.63168
C     2.20906  -0.40383  -0.87725
O     2.49332  -1.56887  -1.18162
C     0.72050  -0.03979  -0.74891
N     0.28756   1.11636  -1.21877
N    -1.05464   1.27426  -1.34197
C    -1.50921   2.45236  -0.90626
N    -2.03509   3.42485  -0.51136
C    -1.64465  -0.87012  -0.36353
C    -2.57331  -0.19002   0.62837
O    -3.80351  -0.29572   0.38883
O    -2.03815   0.41572   1.59329
C    -0.30463  -1.26445  -0.08192
C     0.20031  -1.38034   1.40089
O    -0.29970  -2.28083   2.10978
O     1.12834  -0.58660   1.72731
H     5.20032   1.06109  -0.37470
H     4.78881  -0.56593   0.24663
H     4.93050  -0.29282  -1.51069
H     2.91732   1.46315  -0.32533
H    -2.12610  -1.23886  -1.27978
H     0.03261  -2.15225  -0.68657
23

C     4.56917   0.16889  -0.57049
N     3.15103   0.53184  -0.63030
C     2.21550  -0.40054  -0.87892
O     2.49234  -1.56654  -1.18228
C     0.73725  -0.01988  -0.75907
N     0.27632   1.10962  -1.21733
N    -1.05328   1.28608  -1.35332
C    -1.50892   2.45705  -0.90606
N    -2.03621   3.42748  -0.50853
C    -1.64939  -0.88240  -0.35781
C    -2.57436  -0.19255   0.62871
O    -3.80523  -0.29304   0.38879
O    -2.03855   0.41579   1.59207
C    -0.31876  -1.28309  -0.07285
C     0.19688  -1.38438   1.40197
O    -0.29652  -2.28218   2.11892
O     1.12429  -0.58744   1.71995
H     5.20235   1.06042  -0.37433
H     4.79017  -0.56644   0.24700
H     4.93189  -0.29339  -1.51036
H     2.91993   1.46380  -0.32622
H    -2.12690  -1.24065  -1.27894
H     0.03280  -2.15251  -0.68614
23

C     4.57506   0.16738  -0.56916
N     3.15889   0.53216  -0.62891
C     2.22193  -0.39726  -0.88060
O     2.49136  -1.56421  -1.18293
C     0.75400   0.00003  -0.76923
N     0.26508   1.10289  -1.21588
N    -1.05191   1.29790  -1.36467
C    -1.50863   2.46174  -0.90586
N    -2.03733   3.43012  -0.50571
C    -1.65412  -0.89468  -0.35209
C    -2.57541  -0.19507   0.62905
O    -3.80696  -0.29036   0.38875
O    -2.03895   0.41586   1.59085
C    -0.33290  -1.30174  -0.06378
C     0.19344  -1.38842   1.40305
O    -0.29335  -2.28352   2.12805
O     1.12023  -0.58828   1.71260
H     5.20439   1.05974  -0.37396
H     4.79152  -0.56696   0.24736
H     4.93329  -0.29396  -1.51002
H     2.92253   1.46445  -0.32711
H    -2.12770  -1.24243  -1.27809
H     0.03299  -2.15277  -0.68570
23

C     4.58096   0.16586  -0.56784
N     3.16675   0.53248  -0.62753
C     2.22837  -0.39398  -0.88228
O     2.49038  -1.56188  -1.18359
C     0.77075   0.01994  -0.77939
N     0.25383   1.09615  -1.21444
N    -1.05055   1.30972  -1.37603
C    -1.50833   2.46643  -0.90566
N    -2.03845   3.43276  -0.50289
C    -1.65886  -0.90696  -0.34638
C    -2.57646  -0.19760   0.62939
O    -3.80868  -0.28768   0.38872
O    -2.03934   0.41593   1.58963
C    -0.34703  -1.32038  -0.05471
C     0.19000  -1.39246   1.40413
O    -0.29017  -2.28487   2.13718
O     1.11617  -0.58912   1.70524
H     5.20643   1.05907  -0.37359
H     4.79288  -0.56748   0.24773
H     4.93468  -0.29452  -1.50969
H     2.92514   1.46510  -0.32800
H    -2.12851  -1.24422  -1.27725
H     0.03318  -2.15303  -0.68527
23

C     4.58685   0.16435  -0.56652
N     3.17461   0.53281  -0.62615
C     2.23481  -0.39069  -0.88396
O     2.48940  -1.55955  -1.18424
C     0.78750   0.03985  -0.78955
N     0.24259   1.08942  -1.21299
N    -1.04918   1.32153  -1.38738
C    -1.50804   2.47113  -0.90546
N    -2.03958   3.43540  -0.50007
C    -1.66359  -0.91923  -0.34066
C    -2.57750  -0.20013   0.62973
O    -3.81040  -0.28500   0.38868
O    -2.03974   0.41601   1.58842
C    -0.36116  -1.33902  -0.04565
C     0.18657  -1.39649   1.40521
O    -0.28699  -2.28622   2.14632
O     1.11212  -0.58996   1.69788
H     5.20847   1.05839  -0.37322
H     4.79424  -0.56800   0.24809
H     4.93608  -0.29509  -1.50935
H     2.92774   1.46574  -0.32889
H    -2.12931  -1.24600  -1.27640
H     0.03336  -2.15329  -0.68484
23

C     4.59274   0.16284  -0.56520
N     3.18247   0.53313  -0.62477
C     2.24124  -0.38741  -0.88563
O     2.48842  -1.55723  -1.18490
C     0.80426   0.05976  -0.79971
N     0.23135   1.08268  -1.21155
N    -1.04782   1.33335  -1.39873
C    -1.50775   2.47582  -0.90526
N    -2.04070   3.43803  -0.49725
C    -1.66832  -0.93151  -0.33494
C    -2.57855  -0.20266   0.63007
O    -3.81212  -0.28232   0.38864
O    -2.04014   0.41608   1.58720
C    -0.37529  -1.35767  -0.03658
C     0.18313  -1.40053   1.40629
O    -0.28381  -2.28756   2.15545
O     1.10806  -0.59080   1.69053
H     5.21050   1.05772  -0.37285
H     4.79559  -0.56852   0.24846
H     4.93747  -0.29566  -1.50902
H     2.93034   1.46639  -0.32978
H    -2.13011  -1.24778  -1.27556
H     0.03355  -2.15356  -0.68440
23

C     4.59863   0.16133  -0.56387
N     3.19033   0.53345  -0.62339
C     2.24768  -0.38412  -0.88731
O     2.48744  -1.55490  -1.18555
C     0.82101   0.07967  -0.80987
N     0.22011   1.07595  -1.21010
N    -1.04646   1.34517  -1.41009
C    -1.50746   2.48051  -0.90506
N    -2.04182   3.44067  -0.49443
C    -1.67306  -0.94379  -0.32922
C    -2.57960  -0.20519   0.63041
O    -3.81384  -0.27964   0.38861
O    -2.04054   0.41615   1.58598
C    -0.38942  -1.37631  -0.02751
C     0.17970  -1.40457   1.40737
O    -0.28063  -2.28891   2.16458
O     1.10400  -0.59164   1.68317
H     5.21254   1.05704  -0.37248
H     4.79695  -0.56904   0.24882
H     4.93887  -0.29622  -1.50868
H     2.93295   1.46704  -0.33067
H    -2.13092  -1.24957  -1.27472
H     0.03374  -2.15382  -0.68397
23

C     4.60452   0.15982  -0.56255
N     3.19819   0.53377  -0.62201
C     2.25412  -0.38084  -0.88899
O     2.48645  -1.55257  -1.18621
C     0.83776   0.09958  -0.82003
N     0.20887   1.06922  -1.20866
N    -1.04509   1.35699  -1.42144
C    -1.50716   2.48520  -0.90486
N    -2.04294   3.44331  -0.49160
C    -1.67779  -0.95606  -0.32350
C    -2.58065  -0.20771   0.63075
O    -3.81557  -0.27696   0.38857
O    -2.04094   0.41622   1.58476
C    -0.40355  -1.39495  -0.01844
C     0.17626  -1.40861   1.40845
O    -0.27746  -2.29025   2.17372
O     1.09995  -0.59247   1.67581
H     5.21458   1.05637  -0.37211
H     4.79830  -0.56956   0.24919
H     4.94026  -0.29679  -1.50835
H     2.93555   1.46769  -0.33156
H    -2.13172  -1.25135  -1.27387
H     0.03393  -2.15408  -0.68353
23

C     4.61041   0.15831  -0.56123
N     3.20605   0.53409  -0.62063
C     2.26055  -0.37756  -0.89067
O     2.48547  -1.55024  -1.18686
C     0.85451   0.11949  -0.83019
N     0.19762   1.06248  -1.20721
N    -1.04373   1.36880  -1.43280
C    -1.50687   2.48989  -0.90465
N    -2.04407   3.44594  -0.48878
C    -1.68253  -0.96834  -0.31778
C    -2.58169  -0.21024   0.63109
O    -3.81729  -0.27428   0.38853
O    -2.04134   0.41629   1.58354
C    -0.41768  -1.41360  -0.00938
C     0.17283  -1.41265   1.40953
O    -0.27428  -2.29160   2.18285
O     1.09589  -0.59331   1.66845
H     5.21662   1.05569  -0.37174
H     4.79966  -0.57008   0.24955
H     4.94166  -0.29736  -1.50801
H     2.93816   1.46834  -0.33245
H    -2.13252  -1.25314  -1.27303
H     0.03412  -2.15434  -0.68310
23

C     4.61630   0.15680  -0.55991
N     3.21391   0.53442  -0.61925
C     2.26699  -0.37427  -0.89234
O     2.48449  -1.54791  -1.18752
C     0.87126   0.13940  -0.84035
N     0.18638   1.05575  -1.20577
N    -1.04237   1.38062  -1.44415
C    -1.50658   2.49458  -0.90445
N    -2.04519   3.44858  -0.48596
C    -1.68726  -0.98062  -0.31207
C    -2.58274  -0.21277   0.63143
O    -3.81901  -0.27161   0.38850
O    -2.04174   0.41636   1.58233
C    -0.43182  -1.43224  -0.00031
C     0.16939  -1.41669   1.41062
O    -0.27110  -2.29294   2.19199
O     1.09183  -0.59415   1.66110
H     5.21866   1.05502  -0.37137
H     4.80102  -0.57060   0.24992
H     4.94305  -0.29792  -1.50768
H     2.94076   1.46898  -0.33334
H    -2.13332  -1.25492  -1.27218
H     0.03430  -2.15460  -0.68267
23

C     4.62219   0.15529  -0.55858
N     3.22177   0.53474  -0.61787
C     2.27343  -0.37099  -0.89402
O     2.48351  -1.54558  -1.18817
C     0.88801   0.15931  -0.85050
N     0.17514   1.04901  -1.20432
N    -1.04100   1.39244  -1.45550
C    -1.50629   2.49927  -0.90425
N    -2.04631   3.45122  -0.48314
C    -1.69200  -0.99290  -0.30635
C    -2.58379  -0.21530   0.63176
O    -3.82073  -0.26893   0.38846
O    -2.04213   0.41643   1.58111
C    -0.44595  -1.45088   0.00876
C     0.16596  -1.42073   1.41170
O    -0.26792  -2.29429   2.20112
O     1.08778  -0.59499   1.65374
H     5.22069   1.05434  -0.37100
H     4.80237  -0.57112   0.25028
H     4.94445  -0.29849  -1.50735
H     2.94336   1.46963  -0.33423
H    -2.13413  -1.25670  -1.27134
H     0.03449  -2.15486  -0.68223
23

C     4.62808   0.15378  -0.55726
N     3.22963   0.53506  -0.61649
C     2.27986  -0.36770  -0.89570
O     2.48253  -1.54325  -1.18883
C     0.90477   0.17922  -0.86066
N     0.16390   1.04228  -1.20288
N    -1.03964   1.40426  -1.46686
C    -1.50600   2.50396  -0.90405
N    -2.04743   3.45386  -0.48032
C    -1.69673  -1.00517  -0.30063
C    -2.58483  -0.21783   0.63210
O    -3.82246  -0.26625   0.38842
O    -2.04253   0.41650   1.57989
C    -0.46008  -1.46953   0.01783
C     0.16252  -1.42476   1.41278
O    -0.26474  -2.29563   2.21025
O     1.08372  -0.59583   1.64638
H     5.22273   1.05367  -0.37063
H     4.80373  -0.57164   0.25065
H     4.94584  -0.29906  -1.50701
H     2.94597   1.47028  -0.33512
H    -2.13493  -1.25849  -1.27049
H     0.03468  -2.15512  -0.68180
23

C     4.63398   0.15227  -0.55594
N     3.23749   0.53538  -0.61511
C     2.28630  -0.36442  -0.89737
O     2.48155  -1.54093  -1.18948
C     0.92152   0.19913  -0.87082
N     0.15265   1.03554  -1.20143
N    -1.03827   1.41607  -1.47821
C    -1.50570   2.50865  -0.90385
N    -2.04856   3.45649  -0.47750
C    -1.70147  -1.01745  -0.29491
C    -2.58588  -0.22036   0.63244
O    -3.82418  -0.26357   0.38839
O    -2.04293   0.41658   1.57867
C    -0.47421  -1.48817   0.02690
C     0.15909  -1.42880   1.41386
O    -0.26157  -2.29698   2.21939
O     1.07967  -0.59667   1.63903
H     5.22477   1.05299  -0.37026
H     4.80509  -0.57215   0.25102
H     4.94724  -0.29962  -1.50668
H     2.94857   1.47093  -0.33601
H    -2.13573  -1.26027  -1.26965
H     0.03487  -2.15538  -0.68137
23

C     4.63987   0.15076  -0.55462
N     3.24535   0.53570  -0.61372
C     2.29274  -0.36113  -0.89905
O     2.48057  -1.53860  -1.19014
C     0.93827   0.21904  -0.88098
N     0.14141   1.02881  -1.19999
N    -1.03691   1.42789  -1.48957
C    -1.50541   2.51334  -0.90365
N    -2.04968   3.45913  -0.47467
C    -1.70620  -1.02973  -0.28919
C    -2.58693  -0.22288   0.63278
O    -3.82590  -0.26089   0.38835
O    -2.04333   0.41665   1.57745
C    -0.48834  -1.50681   0.03596
C     0.15565  -1.43284   1.41494
O    -0.25839  -2.29832   2.22852
O     1.07561  -0.59750   1.63167
H     5.22681   1.05232  -0.36989
H     4.80644  -0.57267   0.25138
H     4.94863  -0.30019  -1.50634
H     2.95117   1.47157  -0.33690
H    -2.13654  -1.26206  -1.26880
H     0.03506  -2.15564  -0.68093
23

C     4.64576   0.14925  -0.55329
N     3.25321   0.53602  -0.61234
C     2.29917  -0.35785  -0.90073
O     2.47959  -1.53627  -1.19079
C     0.95502   0.23895  -0.89114
N     0.13017   1.02207  -1.19854
N    -1.03555   1.43971  -1.50092
C    -1.50512   2.51803  -0.90345
N    -2.05080   3.46177  -0.47185
C    -1.71094  -1.04200  -0.28347
C    -2.58798  -0.22541   0.63312
O    -3.82762  -0.25821   0.38832
O    -2.04373   0.41672   1.57624
C    -0.50247  -1.52546   0.04503
C     0.15221  -1.43688   1.41602
O    -0.25521  -2.29967   2.23765
O     1.07155  -0.59834   1.62431
H     5.22885   1.05164  -0.36952
H     4.80780  -0.57319   0.25175
H     4.95002  -0.30076  -1.50601
H     2.95378   1.47222  -0.33779
H    -2.13734  -1.26384  -1.26796
H     0.03524  -2.15590  -0.68050
23

C     4.65165   0.14774  -0.55197
N     3.26107   0.53635  -0.61096
C     2.30561  -0.35457  -0.90241
O     2.47861  -1.53394  -1.19145
C     0.97177   0.25886  -0.90130
N     0.11893   1.01534  -1.19710
N    -1.03418   1.45153  -1.51227
C    -1.50483   2.52273  -0.90325
N    -2.05192   3.46441  -0.46903
C    -1.71567  -1.05428  -0.27776
C    -2.58902  -0.22794   0.63346
O    -3.82935  -0.25553   0.38828
O    -2.04413   0.41679   1.57502
C    -0.51661  -1.54410   0.05410
C     0.14878  -1.44092   1.41710
O    -0.25203  -2.30102   2.24679
O     1.06750  -0.59918   1.61695
H     5.23088   1.05097  -0.36915
H     4.80915  -0.57371   0.25211
H     4.95142  -0.30133  -1.50567
H     2.95638   1.47287  -0.33868
H    -2.13814  -1.26562  -1.26711
H     0.03543  -2.15616  -0.68007
23

C     4.65754   0.14623  -0.55065
N     3.26893   0.53667  -0.60958
C     2.31205  -0.35128  -0.90408
O     2.47762  -1.53161  -1.19210
C     0.98852   0.27877  -0.91146
N     0.10769   1.00860  -1.19565
N    -1.03282   1.46334  -1.52363
C    -1.50453   2.52742  -0.90305
N    -2.05305   3.46704  -0.46621
C    -1.72041  -1.06656  -0.27204
C    -2.59007  -0.23047   0.63380
O    -3.83107  -0.25285   0.38824
O    -2.04453   0.41686   1.57380
C    -0.53074  -1.56274   0.06317
C     0.14534  -1.44496   1.41818
O    -0.24885  -2.30236   2.25592
O     1.06344  -0.60002   1.60960
H     5.23292   1.05029  -0.36878
H     4.81051  -0.57423   0.25248
H     4.95281  -0.30189  -1.50534
H     2.95899   1.47352  -0.33957
H    -2.13894  -1.26741  -1.26627
H     0.03562  -2.15642  -0.67963
23

C     4.66343   0.14472  -0.54932
N     3.27679   0.53699  -0.60820
C     2.31848  -0.34800  -0.90576
O     2.47664  -1.52928  -1.19276
C     1.00528   0.29868  -0.92162
N     0.09644   1.00187  -1.19421
N    -1.03146   1.47516  -1.53498
C    -1.50424   2.53211  -0.90285
N    -2.05417   3.46968  -0.46339
C    -1.72514  -1.07883  -0.26632
C    -2.59112  -0.23300   0.63414
O    -3.83279  -0.25017   0.38821
O    -2.04493   0.41693   1.57258
C    -0.54487  -1.58139   0.07223
C     0.14191  -1.44900   1.41926
O    -0.24568  -2.30371   2.26505
O     1.05938  -0.60086   1.60224
H     5.23496   1.04962  -0.36841
H     4.81187  -0.57475   0.25284
H     4.95421  -0.30246  -1.50500
H     2.96159   1.47417  -0.34046
H    -2.13975  -1.26919  -1.26542
H     0.03581  -2.15668  -0.67920
23

C     4.66932   0.14321  -0.54800
N     3.28465   0.53731  -0.60682
C     2.32492  -0.34471  -0.90744
O     2.47566  -1.52695  -1.19341
C     1.02203   0.31859  -0.93178
N     0.08520   0.99514  -1.19276
N    -1.03009   1.48698  -1.54634
C    -1.50395   2.53680  -0.90265
N    -2.05529   3.47232  -0.46057
C    -1.72988  -1.09111  -0.26060
C    -2.59216  -0.23552   0.63448
O    -3.83451  -0.24749   0.38817
O    -2.04532   0.41700   1.57136
C    -0.55900  -1.60003   0.08130
C     0.13847  -1.45304   1.42034
O    -0.24250  -2.30505   2.27419
O     1.05533  -0.60170   1.59488
H     5.23700   1.04895  -0.36804
H     4.81322  -0.57527   0.25321
H     4.95560  -0.30303  -1.50467
H     2.96419   1.47481  -0.34135
H    -2.14055  -1.27098  -1.26458
H     0.03600  -2.15694  -0.67877
23

C     4.67521   0.14170  -0.54668
N     3.29251   0.53763  -0.60544
C     2.33136  -0.34143  -0.90912
O     2.47468  -1.52463  -1.19407
C     1.03878   0.33850  -0.94194
N     0.07396   0.98840  -1.19132
N    -1.02873   1.49880  -1.55769
C    -1.50366   2.54149  -0.90245
N    -2.05641   3.47496  -0.45774
C    -1.73461  -1.10339  -0.25488
C    -2.59321  -0.23805   0.63482
O    -3.83623  -0.24481   0.38813
O    -2.04572   0.41707   1.57015
C    -0.57313  -1.61867   0.09037
C     0.13504  -1.45707   1.42143
O    -0.23932  -2.30640   2.28332
O     1.05127  -0.60253   1.58753
H     5.23903   1.04827  -0.36767
H     4.81458  -0.57579   0.25357
H     4.95700  -0.30359  -1.50433
H     2.96680   1.47546  -0.34224
H    -2.14135  -1.27276  -1.26373
H     0.03618  -2.15720  -0.67833
