14

C 3.872214898 0.347909502 -0.740177963
C 1.310046324 1.405570298 -0.083645892
C 0.734629273 3.722316814 -0.645193695
C -0.594823423 -0.204293567 1.235915297
C -3.387653329 0.181535520 0.913275515
C -2.130730834 -2.062721348 -0.267124787
H 4.843239839 -0.245824267 0.980551901
H 5.048379267 1.732941028 -1.709027394
H 3.646403417 -1.298625953 -1.961992615
H 0.023998388 -0.828767228 3.088261260
H -4.568127595 -0.120879128 2.553700371
H -4.023772597 1.674562664 -0.327043959
H -2.452811182 -3.908344043 0.552061548
H -1.890892709 -2.050566819 -2.298534602

