15

C 3.733588520 -0.477450738 -0.280821126
C 1.596960966 -0.907442517 1.212354683
C -0.586127225 -2.131248014 0.250716296
C -2.337938680 -0.215462623 0.115013872
N -4.656211547 -0.217557630 -0.941324758
C -1.302458734 2.167779671 1.201999891
N 0.819061632 1.219851170 2.474554087
H 5.266487166 0.688394478 0.426321250
H 4.264001744 -1.851326757 -1.703062946
H 2.038706104 1.448075794 -1.510570209
H -0.610134343 -3.943195884 -0.687354883
H -5.561243378 1.447970896 -1.026513763
H -5.192406879 -1.589354195 -2.132395248
H 0.328388083 2.417405594 -1.166901687
H 2.139924900 2.500888233 2.962605924

