12

N 4.898100195 1.959398059 1.486314383
C 3.662679023 0.739339794 0.190423903
C 2.044922245 -0.782949948 -1.482302230
N -0.606604505 -0.293766864 -1.083553275
C -2.232438048 -1.400391163 0.562637816
C -2.042785928 1.677325387 -1.820241783
H 2.554551561 -0.384779401 -3.440942963
H 2.395389926 -2.782058863 -1.103539529
H -2.897527782 -0.342880960 2.172765826
H -2.692938416 -3.397064921 0.385030451
H -3.765921111 1.293274117 -2.836387790
H -1.385640604 3.615610613 -1.604419469

