9

C -1.835390640 -0.265316244 0.288375835
C 0.847948496 0.038539131 0.092912523
O 2.291265960 -1.959976240 0.759730581
H -2.484478305 -1.258800750 1.990730852
H -1.559792623 2.082969291 -1.262218055
H -2.938277288 -0.797576882 -1.343990095
H 1.761381747 1.831573110 0.436973693
H -0.075090233 1.808977882 -2.304617253
H 3.933541481 -1.415554704 1.315180880

