12

C -2.535045089 -0.306604794 -0.837909458
C 0.160505136 -0.059483457 0.060402148
C 1.608975864 -2.055263582 1.360648276
C 2.359968219 -1.484338675 -0.888128533
N 2.763240763 3.642999604 0.692885469
N 0.731266449 2.641868340 0.788508842
H -3.876368781 0.210884119 0.647614415
H -2.895297829 0.905065525 -2.471221347
H -2.924733810 -2.253761227 -1.376602138
H 1.843845483 -3.113333541 3.080910584
H 3.653540875 -1.738340637 -2.433614682
H -0.894867259 3.594901369 1.369334894

