10

N 4.802211599 1.349468033 0.524128070
C 2.350732674 0.866538790 0.212253452
C 1.337676123 -1.725749392 -0.408571185
H 2.452183377 -3.431429741 -0.657618871
N -1.034062690 -1.645502890 -0.597819395
C -1.664085380 1.049490338 -0.096963057
O -3.775922260 1.799529364 -0.124231597
N 0.537845610 2.470253240 0.387339469
H 6.105031119 -0.013250571 0.346977206
H 5.360631640 3.117236468 0.934422949

