26

C     2.68127   2.44763  -0.74857
O     2.19386   1.24864  -0.14063
C     1.53976   0.39234  -0.93367
O     1.39754   0.53754  -2.13192
C     1.06040  -0.76405  -0.16707
C     0.77749  -2.07652  -0.72906
C     0.54746  -3.19110   0.25317
O     0.75848  -2.24249  -1.94555
N     0.93371  -0.55647   1.13647
N     0.57528  -0.20879   2.16215
C    -1.54483   0.74121   1.04258
C    -1.02663   2.11596   1.41458
O    -0.38995   2.77037   0.53642
O    -1.35355   2.54905   2.55634
C    -1.46027   0.20973  -0.13762
C    -2.08663  -1.10845  -0.52057
O    -2.23574  -1.32252  -1.75589
O    -2.48044  -1.87240   0.41037
H     3.17646   2.99924   0.05554
H     1.85055   3.02706  -1.16098
H     3.40378   2.20392  -1.54444
H     1.40617  -3.25697   0.94228
H     0.43190  -4.12814  -0.29475
H    -0.35390  -2.97989   0.84195
H    -1.95378   0.13707   1.88117
H    -1.00792   0.78162  -0.97654
26

C     2.68160   2.44673  -0.74858
O     2.19314   1.24742  -0.14101
C     1.53691   0.39319  -0.93415
O     1.39793   0.53789  -2.13266
C     1.04100  -0.75690  -0.16728
C     0.77490  -2.07494  -0.72963
C     0.54816  -3.19007   0.25280
O     0.75889  -2.24210  -1.94541
N     0.93847  -0.55852   1.14209
N     0.55242  -0.19831   2.15070
C    -1.52096   0.73104   1.05323
C    -1.02406   2.11513   1.41581
O    -0.39139   2.76950   0.53565
O    -1.35474   2.54858   2.55557
C    -1.44192   0.20125  -0.13871
C    -2.08449  -1.10925  -0.52090
O    -2.23620  -1.32165  -1.75578
O    -2.48051  -1.87058   0.41070
H     3.17653   2.99887   0.05563
H     1.85066   3.02686  -1.16094
H     3.40388   2.20373  -1.54445
H     1.40642  -3.25606   0.94215
H     0.43255  -4.12791  -0.29485
H    -0.35363  -2.97996   0.84206
H    -1.95385   0.13738   1.88032
H    -1.00943   0.78261  -0.97622
26

C     2.68193   2.44584  -0.74858
O     2.19243   1.24621  -0.14139
C     1.53406   0.39403  -0.93462
O     1.39832   0.53824  -2.13340
C     1.02160  -0.74976  -0.16750
C     0.77232  -2.07336  -0.73019
C     0.54886  -3.18904   0.25243
O     0.75930  -2.24171  -1.94527
N     0.94322  -0.56057   1.14771
N     0.52956  -0.18783   2.13925
C    -1.49709   0.72086   1.06389
C    -1.02149   2.11430   1.41704
O    -0.39282   2.76864   0.53488
O    -1.35593   2.54812   2.55480
C    -1.42357   0.19277  -0.13981
C    -2.08235  -1.11006  -0.52123
O    -2.23666  -1.32078  -1.75567
O    -2.48059  -1.86877   0.41104
H     3.17661   2.99850   0.05572
H     1.85077   3.02666  -1.16090
H     3.40399   2.20354  -1.54446
H     1.40667  -3.25516   0.94202
H     0.43320  -4.12769  -0.29494
H    -0.35337  -2.98003   0.84216
H    -1.95393   0.13770   1.87947
H    -1.01093   0.78360  -0.97589
26

C     2.68227   2.44494  -0.74858
O     2.19171   1.24499  -0.14177
C     1.53122   0.39488  -0.93510
O     1.39871   0.53859  -2.13414
C     1.00220  -0.74262  -0.16771
C     0.76973  -2.07178  -0.73076
C     0.54956  -3.18801   0.25207
O     0.75971  -2.24132  -1.94513
N     0.94798  -0.56263   1.15333
N     0.50671  -0.17736   2.12780
C    -1.47322   0.71069   1.07455
C    -1.01892   2.11347   1.41826
O    -0.39426   2.76778   0.53411
O    -1.35712   2.54766   2.55404
C    -1.40523   0.18429  -0.14091
C    -2.08022  -1.11086  -0.52155
O    -2.23712  -1.31990  -1.75557
O    -2.48066  -1.86695   0.41138
H     3.17668   2.99812   0.05582
H     1.85088   3.02646  -1.16085
H     3.40409   2.20335  -1.54446
H     1.40692  -3.25425   0.94190
H     0.43386  -4.12746  -0.29503
H    -0.35311  -2.98011   0.84227
H    -1.95400   0.13802   1.87863
H    -1.01243   0.78458  -0.97556
26

C     2.68260   2.44404  -0.74858
O     2.19100   1.24378  -0.14215
C     1.52837   0.39573  -0.93557
O     1.39910   0.53894  -2.13488
C     0.98280  -0.73547  -0.16793
C     0.76715  -2.07020  -0.73132
C     0.55027  -3.18698   0.25170
O     0.76012  -2.24094  -1.94499
N     0.95273  -0.56468   1.15895
N     0.48385  -0.16688   2.11635
C    -1.44935   0.70052   1.08520
C    -1.01635   2.11264   1.41949
O    -0.39569   2.76691   0.53334
O    -1.35830   2.54719   2.55327
C    -1.38688   0.17581  -0.14200
C    -2.07808  -1.11167  -0.52188
O    -2.23757  -1.31903  -1.75546
O    -2.48073  -1.86513   0.41172
H     3.17676   2.99775   0.05591
H     1.85099   3.02626  -1.16081
H     3.40419   2.20315  -1.54447
H     1.40718  -3.25335   0.94177
H     0.43451  -4.12724  -0.29513
H    -0.35284  -2.98018   0.84237
H    -1.95408   0.13834   1.87778
H    -1.01394   0.78557  -0.97524
26

C     2.68293   2.44314  -0.74858
O     2.19028   1.24257  -0.14253
C     1.52552   0.39658  -0.93605
O     1.39949   0.53929  -2.13562
C     0.96340  -0.72833  -0.16815
C     0.76457  -2.06862  -0.73189
C     0.55097  -3.18595   0.25133
O     0.76053  -2.24055  -1.94485
N     0.95749  -0.56673   1.16457
N     0.46100  -0.15640   2.10490
C    -1.42548   0.69035   1.09586
C    -1.01377   2.11181   1.42072
O    -0.39712   2.76605   0.53256
O    -1.35949   2.54673   2.55250
C    -1.36854   0.16733  -0.14310
C    -2.07594  -1.11247  -0.52221
O    -2.23803  -1.31816  -1.75535
O    -2.48081  -1.86332   0.41206
H     3.17683   2.99738   0.05600
H     1.85110   3.02606  -1.16077
H     3.40430   2.20296  -1.54447
H     1.40743  -3.25244   0.94164
H     0.43516  -4.12701  -0.29522
H    -0.35258  -2.98025   0.84248
H    -1.95416   0.13866   1.87693
H    -1.01544   0.78656  -0.97491
26

C     2.68326   2.44225  -0.74859
O     2.18956   1.24135  -0.14291
C     1.52267   0.39742  -0.93652
O     1.39988   0.53964  -2.13636
C     0.94400  -0.72118  -0.16836
C     0.76198  -2.06704  -0.73245
C     0.55167  -3.18492   0.25096
O     0.76094  -2.24016  -1.94470
N     0.96224  -0.56878   1.17019
N     0.43814  -0.14592   2.09346
C    -1.40161   0.68018   1.10651
C    -1.01120   2.11098   1.42194
O    -0.39856   2.76518   0.53179
O    -1.36068   2.54627   2.55174
C    -1.35019   0.15885  -0.14419
C    -2.07380  -1.11328  -0.52254
O    -2.23849  -1.31728  -1.75524
O    -2.48088  -1.86150   0.41240
H     3.17691   2.99700   0.05609
H     1.85122   3.02586  -1.16073
H     3.40440   2.20277  -1.54448
H     1.40768  -3.25154   0.94151
H     0.43582  -4.12679  -0.29531
H    -0.35232  -2.98032   0.84259
H    -1.95423   0.13898   1.87608
H    -1.01695   0.78755  -0.97458
26

C     2.68360   2.44135  -0.74859
O     2.18885   1.24014  -0.14330
C     1.51983   0.39827  -0.93700
O     1.40027   0.53999  -2.13710
C     0.92460  -0.71404  -0.16858
C     0.75940  -2.06546  -0.73302
C     0.55237  -3.18389   0.25060
O     0.76135  -2.23977  -1.94456
N     0.96699  -0.57083   1.17581
N     0.41528  -0.13545   2.08201
C    -1.37774   0.67001   1.11717
C    -1.00863   2.11015   1.42317
O    -0.39999   2.76432   0.53102
O    -1.36186   2.54580   2.55097
C    -1.33185   0.15038  -0.14529
C    -2.07166  -1.11408  -0.52287
O    -2.23895  -1.31641  -1.75513
O    -2.48096  -1.85969   0.41274
H     3.17698   2.99663   0.05618
H     1.85133   3.02566  -1.16069
H     3.40450   2.20258  -1.54448
H     1.40793  -3.25063   0.94139
H     0.43647  -4.12656  -0.29541
H    -0.35205  -2.98040   0.84269
H    -1.95431   0.13929   1.87523
H    -1.01845   0.78853  -0.97426
26

C     2.68393   2.44045  -0.74859
O     2.18813   1.23892  -0.14368
C     1.51698   0.39912  -0.93747
O     1.40065   0.54034  -2.13784
C     0.90520  -0.70690  -0.16880
C     0.75681  -2.06388  -0.73358
C     0.55308  -3.18286   0.25023
O     0.76176  -2.23939  -1.94442
N     0.97175  -0.57288   1.18143
N     0.39243  -0.12497   2.07056
C    -1.35387   0.65984   1.12782
C    -1.00606   2.10932   1.42440
O    -0.40143   2.76345   0.53025
O    -1.36305   2.54534   2.55020
C    -1.31350   0.14190  -0.14639
C    -2.06953  -1.11489  -0.52319
O    -2.23941  -1.31554  -1.75503
O    -2.48103  -1.85787   0.41307
H     3.17706   2.99625   0.05627
H     1.85144   3.02546  -1.16065
H     3.40460   2.20239  -1.54449
H     1.40819  -3.24973   0.94126
H     0.43712  -4.12634  -0.29550
H    -0.35179  -2.98047   0.84280
H    -1.95438   0.13961   1.87438
H    -1.01995   0.78952  -0.97393
26

C     2.68426   2.43955  -0.74859
O     2.18742   1.23771  -0.14406
C     1.51413   0.39996  -0.93795
O     1.40104   0.54069  -2.13858
C     0.88579  -0.69975  -0.16901
C     0.75423  -2.06230  -0.73415
C     0.55378  -3.18183   0.24986
O     0.76217  -2.23900  -1.94428
N     0.97650  -0.57494   1.18705
N     0.36957  -0.11449   2.05911
C    -1.33000   0.64966   1.13848
C    -1.00349   2.10849   1.42562
O    -0.40286   2.76259   0.52948
O    -1.36424   2.54488   2.54944
C    -1.29516   0.13342  -0.14748
C    -2.06739  -1.11569  -0.52352
O    -2.23986  -1.31467  -1.75492
O    -2.48110  -1.85605   0.41341
H     3.17714   2.99588   0.05637
H     1.85155   3.02526  -1.16061
H     3.40471   2.20219  -1.54450
H     1.40844  -3.24882   0.94113
H     0.43777  -4.12611  -0.29560
H    -0.35153  -2.98054   0.84290
H    -1.95446   0.13993   1.87353
H    -1.02146   0.79051  -0.97360
26

C     2.68459   2.43865  -0.74860
O     2.18670   1.23649  -0.14444
C     1.51128   0.40081  -0.93842
O     1.40143   0.54104  -2.13932
C     0.86639  -0.69261  -0.16923
C     0.75165  -2.06072  -0.73471
C     0.55448  -3.18080   0.24949
O     0.76258  -2.23861  -1.94414
N     0.98126  -0.57699   1.19266
N     0.34672  -0.10401   2.04766
C    -1.30614   0.63949   1.14914
C    -1.00092   2.10766   1.42685
O    -0.40430   2.76172   0.52871
O    -1.36543   2.54441   2.54867
C    -1.27681   0.12494  -0.14858
C    -2.06525  -1.11650  -0.52385
O    -2.24032  -1.31379  -1.75481
O    -2.48118  -1.85424   0.41375
H     3.17721   2.99551   0.05646
H     1.85166   3.02506  -1.16057
H     3.40481   2.20200  -1.54450
H     1.40869  -3.24792   0.94100
H     0.43843  -4.12589  -0.29569
H    -0.35127  -2.98062   0.84301
H    -1.95454   0.14025   1.87268
H    -1.02296   0.79150  -0.97328
26

C     2.68493   2.43776  -0.74860
O     2.18599   1.23528  -0.14482
C     1.50844   0.40166  -0.93890
O     1.40182   0.54139  -2.14006
C     0.84699  -0.68547  -0.16944
C     0.74906  -2.05914  -0.73528
C     0.55518  -3.17977   0.24913
O     0.76299  -2.23823  -1.94400
N     0.98601  -0.57904   1.19828
N     0.32386  -0.09354   2.03621
C    -1.28227   0.62932   1.15979
C    -0.99835   2.10683   1.42808
O    -0.40573   2.76086   0.52794
O    -1.36661   2.54395   2.54790
C    -1.25847   0.11646  -0.14967
C    -2.06311  -1.11730  -0.52418
O    -2.24078  -1.31292  -1.75470
O    -2.48125  -1.85242   0.41409
H     3.17729   2.99513   0.05655
H     1.85177   3.02486  -1.16053
H     3.40491   2.20181  -1.54451
H     1.40895  -3.24701   0.94088
H     0.43908  -4.12566  -0.29578
H    -0.35100  -2.98069   0.84311
H    -1.95461   0.14057   1.87183
H    -1.02447   0.79249  -0.97295
26

C     2.68526   2.43686  -0.74860
O     2.18527   1.23406  -0.14520
C     1.50559   0.40250  -0.93937
O     1.40221   0.54175  -2.14080
C     0.82759  -0.67832  -0.16966
C     0.74648  -2.05756  -0.73584
C     0.55588  -3.17874   0.24876
O     0.76340  -2.23784  -1.94386
N     0.99077  -0.58109   1.20390
N     0.30100  -0.08306   2.02476
C    -1.25840   0.61915   1.17045
C    -0.99578   2.10600   1.42930
O    -0.40717   2.75999   0.52717
O    -1.36780   2.54348   2.54714
C    -1.24012   0.10798  -0.15077
C    -2.06097  -1.11810  -0.52450
O    -2.24124  -1.31205  -1.75459
O    -2.48133  -1.85061   0.41443
H     3.17736   2.99476   0.05664
H     1.85188   3.02466  -1.16049
H     3.40502   2.20162  -1.54451
H     1.40920  -3.24611   0.94075
H     0.43973  -4.12544  -0.29588
H    -0.35074  -2.98076   0.84322
H    -1.95469   0.14089   1.87099
H    -1.02597   0.79347  -0.97262
26

C     2.68559   2.43596  -0.74860
O     2.18456   1.23285  -0.14558
C     1.50274   0.40335  -0.93985
O     1.40260   0.54210  -2.14154
C     0.80819  -0.67118  -0.16988
C     0.74390  -2.05598  -0.73641
C     0.55659  -3.17771   0.24839
O     0.76381  -2.23745  -1.94371
N     0.99552  -0.58314   1.20952
N     0.27815  -0.07258   2.01331
C    -1.23453   0.60898   1.18110
C    -0.99321   2.10517   1.43053
O    -0.40860   2.75913   0.52639
O    -1.36899   2.54302   2.54637
C    -1.22177   0.09950  -0.15187
C    -2.05884  -1.11891  -0.52483
O    -2.24170  -1.31117  -1.75449
O    -2.48140  -1.84879   0.41477
H     3.17744   2.99439   0.05673
H     1.85199   3.02446  -1.16045
H     3.40512   2.20143  -1.54452
H     1.40945  -3.24520   0.94062
H     0.44039  -4.12522  -0.29597
H    -0.35048  -2.98084   0.84332
H    -1.95477   0.14120   1.87014
H    -1.02747   0.79446  -0.97229
26

C     2.68592   2.43506  -0.74861
O     2.18384   1.23164  -0.14596
C     1.49990   0.40420  -0.94032
O     1.40299   0.54245  -2.14229
C     0.78879  -0.66404  -0.17009
C     0.74131  -2.05440  -0.73697
C     0.55729  -3.17668   0.24802
O     0.76422  -2.23706  -1.94357
N     1.00028  -0.58520   1.21514
N     0.25529  -0.06210   2.00187
C    -1.21066   0.59881   1.19176
C    -0.99064   2.10434   1.43176
O    -0.41004   2.75826   0.52562
O    -1.37017   2.54256   2.54560
C    -1.20343   0.09102  -0.15296
C    -2.05670  -1.11971  -0.52516
O    -2.24215  -1.31030  -1.75438
O    -2.48148  -1.84697   0.41511
H     3.17751   2.99401   0.05682
H     1.85210   3.02426  -1.16041
H     3.40522   2.20123  -1.54453
H     1.40970  -3.24430   0.94049
H     0.44104  -4.12499  -0.29606
H    -0.35021  -2.98091   0.84343
H    -1.95484   0.14152   1.86929
H    -1.02898   0.79545  -0.97197
26

C     2.68626   2.43417  -0.74861
O     2.18313   1.23042  -0.14634
C     1.49705   0.40505  -0.94080
O     1.40338   0.54280  -2.14303
C     0.76939  -0.65689  -0.17031
C     0.73873  -2.05282  -0.73754
C     0.55799  -3.17565   0.24765
O     0.76463  -2.23668  -1.94343
N     1.00503  -0.58725   1.22076
N     0.23244  -0.05163   1.99042
C    -1.18679   0.58864   1.20242
C    -0.98807   2.10351   1.43298
O    -0.41147   2.75740   0.52485
O    -1.37136   2.54209   2.54484
C    -1.18508   0.08254  -0.15406
C    -2.05456  -1.12052  -0.52549
O    -2.24261  -1.30943  -1.75427
O    -2.48155  -1.84516   0.41544
H     3.17759   2.99364   0.05692
H     1.85221   3.02406  -1.16037
H     3.40532   2.20104  -1.54453
H     1.40996  -3.24339   0.94037
H     0.44169  -4.12477  -0.29616
H    -0.34995  -2.98098   0.84353
H    -1.95492   0.14184   1.86844
H    -1.03048   0.79644  -0.97164
26

C     2.68659   2.43327  -0.74861
O     2.18241   1.22921  -0.14672
C     1.49420   0.40589  -0.94127
O     1.40377   0.54315  -2.14377
C     0.74999  -0.64975  -0.17052
C     0.73614  -2.05124  -0.73810
C     0.55869  -3.17462   0.24729
O     0.76504  -2.23629  -1.94329
N     1.00979  -0.58930   1.22638
N     0.20958  -0.04115   1.97897
C    -1.16292   0.57846   1.21307
C    -0.98550   2.10268   1.43421
O    -0.41290   2.75653   0.52408
O    -1.37255   2.54163   2.54407
C    -1.16674   0.07406  -0.15515
C    -2.05242  -1.12132  -0.52582
O    -2.24307  -1.30856  -1.75416
O    -2.48162  -1.84334   0.41578
H     3.17767   2.99327   0.05701
H     1.85232   3.02386  -1.16033
H     3.40543   2.20085  -1.54454
H     1.41021  -3.24249   0.94024
H     0.44235  -4.12454  -0.29625
H    -0.34969  -2.98106   0.84364
H    -1.95499   0.14216   1.86759
H    -1.03199   0.79743  -0.97131
26

C     2.68692   2.43237  -0.74861
O     2.18170   1.22799  -0.14710
C     1.49135   0.40674  -0.94175
O     1.40416   0.54350  -2.14451
C     0.73059  -0.64261  -0.17074
C     0.73356  -2.04966  -0.73867
C     0.55940  -3.17359   0.24692
O     0.76545  -2.23590  -1.94315
N     1.01454  -0.59135   1.23200
N     0.18672  -0.03067   1.96752
C    -1.13905   0.56829   1.22373
C    -0.98293   2.10185   1.43544
O    -0.41434   2.75567   0.52331
O    -1.37373   2.54117   2.54330
C    -1.14839   0.06558  -0.15625
C    -2.05028  -1.12213  -0.52614
O    -2.24353  -1.30768  -1.75405
O    -2.48170  -1.84152   0.41612
H     3.17774   2.99289   0.05710
H     1.85243   3.02367  -1.16029
H     3.40553   2.20066  -1.54454
H     1.41046  -3.24158   0.94011
H     0.44300  -4.12432  -0.29634
H    -0.34943  -2.98113   0.84374
H    -1.95507   0.14248   1.86674
H    -1.03349   0.79841  -0.97099
26

C     2.68725   2.43147  -0.74861
O     2.18098   1.22678  -0.14748
C     1.48851   0.40759  -0.94222
O     1.40455   0.54385  -2.14525
C     0.71119  -0.63546  -0.17096
C     0.73098  -2.04808  -0.73923
C     0.56010  -3.17256   0.24655
O     0.76586  -2.23551  -1.94301
N     1.01929  -0.59340   1.23762
N     0.16387  -0.02019   1.95607
C    -1.11518   0.55812   1.23438
C    -0.98036   2.10102   1.43666
O    -0.41577   2.75480   0.52254
O    -1.37492   2.54070   2.54254
C    -1.13005   0.05710  -0.15734
C    -2.04814  -1.12293  -0.52647
O    -2.24399  -1.30681  -1.75394
O    -2.48177  -1.83971   0.41646
H     3.17782   2.99252   0.05719
H     1.85255   3.02347  -1.16025
H     3.40563   2.20047  -1.54455
H     1.41071  -3.24068   0.93998
H     0.44365  -4.12409  -0.29644
H    -0.34916  -2.98120   0.84385
H    -1.95515   0.14280   1.86589
H    -1.03499   0.79940  -0.97066
26

C     2.68759   2.43057  -0.74862
O     2.18027   1.22556  -0.14786
C     1.48566   0.40843  -0.94270
O     1.40494   0.54420  -2.14599
C     0.69178  -0.62832  -0.17117
C     0.72839  -2.04649  -0.73980
C     0.56080  -3.17153   0.24618
O     0.76627  -2.23513  -1.94287
N     1.02405  -0.59546   1.24324
N     0.14101  -0.00972   1.94462
C    -1.09131   0.54795   1.24504
C    -0.97778   2.10019   1.43789
O    -0.41721   2.75394   0.52177
O    -1.37611   2.54024   2.54177
C    -1.11170   0.04862  -0.15844
C    -2.04601  -1.12374  -0.52680
O    -2.24444  -1.30594  -1.75384
O    -2.48185  -1.83789   0.41680
H     3.17789   2.99215   0.05728
H     1.85266   3.02327  -1.16020
H     3.40574   2.20028  -1.54455
H     1.41097  -3.23977   0.93985
H     0.44430  -4.12387  -0.29653
H    -0.34890  -2.98128   0.84395
H    -1.95522   0.14311   1.86504
H    -1.03650   0.80039  -0.97033
26

C     2.68792   2.42968  -0.74862
O     2.17955   1.22435  -0.14824
C     1.48281   0.40928  -0.94317
O     1.40533   0.54455  -2.14673
C     0.67238  -0.62118  -0.17139
C     0.72581  -2.04491  -0.74036
C     0.56150  -3.17050   0.24582
O     0.76668  -2.23474  -1.94272
N     1.02880  -0.59751   1.24886
N     0.11816   0.00076   1.93317
C    -1.06744   0.53778   1.25570
C    -0.97521   2.09936   1.43912
O    -0.41864   2.75307   0.52100
O    -1.37730   2.53977   2.54100
C    -1.09336   0.04015  -0.15954
C    -2.04387  -1.12454  -0.52713
O    -2.24490  -1.30506  -1.75373
O    -2.48192  -1.83608   0.41714
H     3.17797   2.99177   0.05737
H     1.85277   3.02307  -1.16016
H     3.40584   2.20008  -1.54456
H     1.41122  -3.23887   0.93973
H     0.44496  -4.12364  -0.29663
H    -0.34864  -2.98135   0.84406
H    -1.95530   0.14343   1.86420
H    -1.03800   0.80138  -0.97001
26

C     2.68759   2.43057  -0.74862
O     2.18027   1.22556  -0.14786
C     1.48566   0.40843  -0.94270
O     1.40494   0.54420  -2.14599
C     0.69178  -0.62832  -0.17117
C     0.72839  -2.04649  -0.73980
C     0.56080  -3.17153   0.24618
O     0.76627  -2.23513  -1.94287
N     1.02405  -0.59546   1.24324
N     0.14101  -0.00972   1.94462
C    -1.09131   0.54795   1.24504
C    -0.97778   2.10019   1.43789
O    -0.41721   2.75394   0.52177
O    -1.37611   2.54024   2.54177
C    -1.11170   0.04862  -0.15844
C    -2.04601  -1.12374  -0.52680
O    -2.24444  -1.30594  -1.75384
O    -2.48185  -1.83789   0.41680
H     3.17789   2.99215   0.05728
H     1.85266   3.02327  -1.16020
H     3.40574   2.20028  -1.54455
H     1.41097  -3.23977   0.93985
H     0.44430  -4.12387  -0.29653
H    -0.34890  -2.98128   0.84395
H    -1.95522   0.14311   1.86504
H    -1.03650   0.80039  -0.97033
26

C     2.68725   2.43147  -0.74861
O     2.18098   1.22678  -0.14748
C     1.48851   0.40759  -0.94222
O     1.40455   0.54385  -2.14525
C     0.71119  -0.63546  -0.17096
C     0.73098  -2.04808  -0.73923
C     0.56010  -3.17256   0.24655
O     0.76586  -2.23551  -1.94301
N     1.01929  -0.59340   1.23762
N     0.16387  -0.02019   1.95607
C    -1.11518   0.55812   1.23438
C    -0.98036   2.10102   1.43666
O    -0.41577   2.75480   0.52254
O    -1.37492   2.54070   2.54254
C    -1.13005   0.05710  -0.15734
C    -2.04814  -1.12293  -0.52647
O    -2.24399  -1.30681  -1.75394
O    -2.48177  -1.83971   0.41646
H     3.17782   2.99252   0.05719
H     1.85255   3.02347  -1.16025
H     3.40563   2.20047  -1.54455
H     1.41071  -3.24068   0.93998
H     0.44365  -4.12409  -0.29644
H    -0.34916  -2.98120   0.84385
H    -1.95515   0.14280   1.86589
H    -1.03499   0.79940  -0.97066
26

C     2.68692   2.43237  -0.74861
O     2.18170   1.22799  -0.14710
C     1.49135   0.40674  -0.94175
O     1.40416   0.54350  -2.14451
C     0.73059  -0.64261  -0.17074
C     0.73356  -2.04966  -0.73867
C     0.55940  -3.17359   0.24692
O     0.76545  -2.23590  -1.94315
N     1.01454  -0.59135   1.23200
N     0.18672  -0.03067   1.96752
C    -1.13905   0.56829   1.22373
C    -0.98293   2.10185   1.43544
O    -0.41434   2.75567   0.52331
O    -1.37373   2.54117   2.54330
C    -1.14839   0.06558  -0.15625
C    -2.05028  -1.12213  -0.52614
O    -2.24353  -1.30768  -1.75405
O    -2.48170  -1.84152   0.41612
H     3.17774   2.99289   0.05710
H     1.85243   3.02367  -1.16029
H     3.40553   2.20066  -1.54454
H     1.41046  -3.24158   0.94011
H     0.44300  -4.12432  -0.29634
H    -0.34943  -2.98113   0.84374
H    -1.95507   0.14248   1.86674
H    -1.03349   0.79841  -0.97099
26

C     2.68659   2.43327  -0.74861
O     2.18241   1.22921  -0.14672
C     1.49420   0.40589  -0.94127
O     1.40377   0.54315  -2.14377
C     0.74999  -0.64975  -0.17052
C     0.73614  -2.05124  -0.73810
C     0.55869  -3.17462   0.24729
O     0.76504  -2.23629  -1.94329
N     1.00979  -0.58930   1.22638
N     0.20958  -0.04115   1.97897
C    -1.16292   0.57846   1.21307
C    -0.98550   2.10268   1.43421
O    -0.41290   2.75653   0.52408
O    -1.37255   2.54163   2.54407
C    -1.16674   0.07406  -0.15515
C    -2.05242  -1.12132  -0.52582
O    -2.24307  -1.30856  -1.75416
O    -2.48162  -1.84334   0.41578
H     3.17767   2.99327   0.05701
H     1.85232   3.02386  -1.16033
H     3.40543   2.20085  -1.54454
H     1.41021  -3.24249   0.94024
H     0.44235  -4.12454  -0.29625
H    -0.34969  -2.98106   0.84364
H    -1.95499   0.14216   1.86759
H    -1.03199   0.79743  -0.97131
26

C     2.68626   2.43417  -0.74861
O     2.18313   1.23042  -0.14634
C     1.49705   0.40505  -0.94080
O     1.40338   0.54280  -2.14303
C     0.76939  -0.65689  -0.17031
C     0.73873  -2.05282  -0.73754
C     0.55799  -3.17565   0.24765
O     0.76463  -2.23668  -1.94343
N     1.00503  -0.58725   1.22076
N     0.23244  -0.05163   1.99042
C    -1.18679   0.58864   1.20242
C    -0.98807   2.10351   1.43298
O    -0.41147   2.75740   0.52485
O    -1.37136   2.54209   2.54484
C    -1.18508   0.08254  -0.15406
C    -2.05456  -1.12052  -0.52549
O    -2.24261  -1.30943  -1.75427
O    -2.48155  -1.84516   0.41544
H     3.17759   2.99364   0.05692
H     1.85221   3.02406  -1.16037
H     3.40532   2.20104  -1.54453
H     1.40996  -3.24339   0.94037
H     0.44169  -4.12477  -0.29616
H    -0.34995  -2.98098   0.84353
H    -1.95492   0.14184   1.86844
H    -1.03048   0.79644  -0.97164
26

C     2.68592   2.43506  -0.74861
O     2.18384   1.23164  -0.14596
C     1.49990   0.40420  -0.94032
O     1.40299   0.54245  -2.14229
C     0.78879  -0.66404  -0.17009
C     0.74131  -2.05440  -0.73697
C     0.55729  -3.17668   0.24802
O     0.76422  -2.23706  -1.94357
N     1.00028  -0.58520   1.21514
N     0.25529  -0.06210   2.00187
C    -1.21066   0.59881   1.19176
C    -0.99064   2.10434   1.43176
O    -0.41004   2.75826   0.52562
O    -1.37017   2.54256   2.54560
C    -1.20343   0.09102  -0.15296
C    -2.05670  -1.11971  -0.52516
O    -2.24215  -1.31030  -1.75438
O    -2.48148  -1.84697   0.41511
H     3.17751   2.99401   0.05682
H     1.85210   3.02426  -1.16041
H     3.40522   2.20123  -1.54453
H     1.40970  -3.24430   0.94049
H     0.44104  -4.12499  -0.29606
H    -0.35021  -2.98091   0.84343
H    -1.95484   0.14152   1.86929
H    -1.02898   0.79545  -0.97197
26

C     2.68559   2.43596  -0.74860
O     2.18456   1.23285  -0.14558
C     1.50274   0.40335  -0.93985
O     1.40260   0.54210  -2.14154
C     0.80819  -0.67118  -0.16988
C     0.74390  -2.05598  -0.73641
C     0.55659  -3.17771   0.24839
O     0.76381  -2.23745  -1.94371
N     0.99552  -0.58314   1.20952
N     0.27815  -0.07258   2.01331
C    -1.23453   0.60898   1.18110
C    -0.99321   2.10517   1.43053
O    -0.40860   2.75913   0.52639
O    -1.36899   2.54302   2.54637
C    -1.22177   0.09950  -0.15187
C    -2.05884  -1.11891  -0.52483
O    -2.24170  -1.31117  -1.75449
O    -2.48140  -1.84879   0.41477
H     3.17744   2.99439   0.05673
H     1.85199   3.02446  -1.16045
H     3.40512   2.20143  -1.54452
H     1.40945  -3.24520   0.94062
H     0.44039  -4.12522  -0.29597
H    -0.35048  -2.98084   0.84332
H    -1.95477   0.14120   1.87014
H    -1.02747   0.79446  -0.97229
26

C     2.68526   2.43686  -0.74860
O     2.18527   1.23406  -0.14520
C     1.50559   0.40250  -0.93937
O     1.40221   0.54175  -2.14080
C     0.82759  -0.67832  -0.16966
C     0.74648  -2.05756  -0.73584
C     0.55588  -3.17874   0.24876
O     0.76340  -2.23784  -1.94386
N     0.99077  -0.58109   1.20390
N     0.30100  -0.08306   2.02476
C    -1.25840   0.61915   1.17045
C    -0.99578   2.10600   1.42930
O    -0.40717   2.75999   0.52717
O    -1.36780   2.54348   2.54714
C    -1.24012   0.10798  -0.15077
C    -2.06097  -1.11810  -0.52450
O    -2.24124  -1.31205  -1.75459
O    -2.48133  -1.85061   0.41443
H     3.17736   2.99476   0.05664
H     1.85188   3.02466  -1.16049
H     3.40502   2.20162  -1.54451
H     1.40920  -3.24611   0.94075
H     0.43973  -4.12544  -0.29588
H    -0.35074  -2.98076   0.84322
H    -1.95469   0.14089   1.87099
H    -1.02597   0.79347  -0.97262
26

C     2.68493   2.43776  -0.74860
O     2.18599   1.23528  -0.14482
C     1.50844   0.40166  -0.93890
O     1.40182   0.54139  -2.14006
C     0.84699  -0.68547  -0.16944
C     0.74906  -2.05914  -0.73528
C     0.55518  -3.17977   0.24913
O     0.76299  -2.23823  -1.94400
N     0.98601  -0.57904   1.19828
N     0.32386  -0.09354   2.03621
C    -1.28227   0.62932   1.15979
C    -0.99835   2.10683   1.42808
O    -0.40573   2.76086   0.52794
O    -1.36661   2.54395   2.54790
C    -1.25847   0.11646  -0.14967
C    -2.06311  -1.11730  -0.52418
O    -2.24078  -1.31292  -1.75470
O    -2.48125  -1.85242   0.41409
H     3.17729   2.99513   0.05655
H     1.85177   3.02486  -1.16053
H     3.40491   2.20181  -1.54451
H     1.40895  -3.24701   0.94088
H     0.43908  -4.12566  -0.29578
H    -0.35100  -2.98069   0.84311
H    -1.95461   0.14057   1.87183
H    -1.02447   0.79249  -0.97295
26

C     2.68459   2.43865  -0.74860
O     2.18670   1.23649  -0.14444
C     1.51128   0.40081  -0.93842
O     1.40143   0.54104  -2.13932
C     0.86639  -0.69261  -0.16923
C     0.75165  -2.06072  -0.73471
C     0.55448  -3.18080   0.24949
O     0.76258  -2.23861  -1.94414
N     0.98126  -0.57699   1.19266
N     0.34672  -0.10401   2.04766
C    -1.30614   0.63949   1.14914
C    -1.00092   2.10766   1.42685
O    -0.40430   2.76172   0.52871
O    -1.36543   2.54441   2.54867
C    -1.27681   0.12494  -0.14858
C    -2.06525  -1.11650  -0.52385
O    -2.24032  -1.31379  -1.75481
O    -2.48118  -1.85424   0.41375
H     3.17721   2.99551   0.05646
H     1.85166   3.02506  -1.16057
H     3.40481   2.20200  -1.54450
H     1.40869  -3.24792   0.94100
H     0.43843  -4.12589  -0.29569
H    -0.35127  -2.98062   0.84301
H    -1.95454   0.14025   1.87268
H    -1.02296   0.79150  -0.97328
26

C     2.68426   2.43955  -0.74859
O     2.18742   1.23771  -0.14406
C     1.51413   0.39996  -0.93795
O     1.40104   0.54069  -2.13858
C     0.88579  -0.69975  -0.16901
C     0.75423  -2.06230  -0.73415
C     0.55378  -3.18183   0.24986
O     0.76217  -2.23900  -1.94428
N     0.97650  -0.57494   1.18705
N     0.36957  -0.11449   2.05911
C    -1.33000   0.64966   1.13848
C    -1.00349   2.10849   1.42562
O    -0.40286   2.76259   0.52948
O    -1.36424   2.54488   2.54944
C    -1.29516   0.13342  -0.14748
C    -2.06739  -1.11569  -0.52352
O    -2.23986  -1.31467  -1.75492
O    -2.48110  -1.85605   0.41341
H     3.17714   2.99588   0.05637
H     1.85155   3.02526  -1.16061
H     3.40471   2.20219  -1.54450
H     1.40844  -3.24882   0.94113
H     0.43777  -4.12611  -0.29560
H    -0.35153  -2.98054   0.84290
H    -1.95446   0.13993   1.87353
H    -1.02146   0.79051  -0.97360
26

C     2.68393   2.44045  -0.74859
O     2.18813   1.23892  -0.14368
C     1.51698   0.39912  -0.93747
O     1.40065   0.54034  -2.13784
C     0.90520  -0.70690  -0.16880
C     0.75681  -2.06388  -0.73358
C     0.55308  -3.18286   0.25023
O     0.76176  -2.23939  -1.94442
N     0.97175  -0.57288   1.18143
N     0.39243  -0.12497   2.07056
C    -1.35387   0.65984   1.12782
C    -1.00606   2.10932   1.42440
O    -0.40143   2.76345   0.53025
O    -1.36305   2.54534   2.55020
C    -1.31350   0.14190  -0.14639
C    -2.06953  -1.11489  -0.52319
O    -2.23941  -1.31554  -1.75503
O    -2.48103  -1.85787   0.41307
H     3.17706   2.99625   0.05627
H     1.85144   3.02546  -1.16065
H     3.40460   2.20239  -1.54449
H     1.40819  -3.24973   0.94126
H     0.43712  -4.12634  -0.29550
H    -0.35179  -2.98047   0.84280
H    -1.95438   0.13961   1.87438
H    -1.01995   0.78952  -0.97393
26

C     2.68360   2.44135  -0.74859
O     2.18885   1.24014  -0.14330
C     1.51983   0.39827  -0.93700
O     1.40027   0.53999  -2.13710
C     0.92460  -0.71404  -0.16858
C     0.75940  -2.06546  -0.73302
C     0.55237  -3.18389   0.25060
O     0.76135  -2.23977  -1.94456
N     0.96699  -0.57083   1.17581
N     0.41528  -0.13545   2.08201
C    -1.37774   0.67001   1.11717
C    -1.00863   2.11015   1.42317
O    -0.39999   2.76432   0.53102
O    -1.36186   2.54580   2.55097
C    -1.33185   0.15038  -0.14529
C    -2.07166  -1.11408  -0.52287
O    -2.23895  -1.31641  -1.75513
O    -2.48096  -1.85969   0.41274
H     3.17698   2.99663   0.05618
H     1.85133   3.02566  -1.16069
H     3.40450   2.20258  -1.54448
H     1.40793  -3.25063   0.94139
H     0.43647  -4.12656  -0.29541
H    -0.35205  -2.98040   0.84269
H    -1.95431   0.13929   1.87523
H    -1.01845   0.78853  -0.97426
26

C     2.68326   2.44225  -0.74859
O     2.18956   1.24135  -0.14291
C     1.52267   0.39742  -0.93652
O     1.39988   0.53964  -2.13636
C     0.94400  -0.72118  -0.16836
C     0.76198  -2.06704  -0.73245
C     0.55167  -3.18492   0.25096
O     0.76094  -2.24016  -1.94470
N     0.96224  -0.56878   1.17019
N     0.43814  -0.14592   2.09346
C    -1.40161   0.68018   1.10651
C    -1.01120   2.11098   1.42194
O    -0.39856   2.76518   0.53179
O    -1.36068   2.54627   2.55174
C    -1.35019   0.15885  -0.14419
C    -2.07380  -1.11328  -0.52254
O    -2.23849  -1.31728  -1.75524
O    -2.48088  -1.86150   0.41240
H     3.17691   2.99700   0.05609
H     1.85122   3.02586  -1.16073
H     3.40440   2.20277  -1.54448
H     1.40768  -3.25154   0.94151
H     0.43582  -4.12679  -0.29531
H    -0.35232  -2.98032   0.84259
H    -1.95423   0.13898   1.87608
H    -1.01695   0.78755  -0.97458
26

C     2.68293   2.44314  -0.74858
O     2.19028   1.24257  -0.14253
C     1.52552   0.39658  -0.93605
O     1.39949   0.53929  -2.13562
C     0.96340  -0.72833  -0.16815
C     0.76457  -2.06862  -0.73189
C     0.55097  -3.18595   0.25133
O     0.76053  -2.24055  -1.94485
N     0.95749  -0.56673   1.16457
N     0.46100  -0.15640   2.10490
C    -1.42548   0.69035   1.09586
C    -1.01377   2.11181   1.42072
O    -0.39712   2.76605   0.53256
O    -1.35949   2.54673   2.55250
C    -1.36854   0.16733  -0.14310
C    -2.07594  -1.11247  -0.52221
O    -2.23803  -1.31816  -1.75535
O    -2.48081  -1.86332   0.41206
H     3.17683   2.99738   0.05600
H     1.85110   3.02606  -1.16077
H     3.40430   2.20296  -1.54447
H     1.40743  -3.25244   0.94164
H     0.43516  -4.12701  -0.29522
H    -0.35258  -2.98025   0.84248
H    -1.95416   0.13866   1.87693
H    -1.01544   0.78656  -0.97491
26

C     2.68260   2.44404  -0.74858
O     2.19100   1.24378  -0.14215
C     1.52837   0.39573  -0.93557
O     1.39910   0.53894  -2.13488
C     0.98280  -0.73547  -0.16793
C     0.76715  -2.07020  -0.73132
C     0.55027  -3.18698   0.25170
O     0.76012  -2.24094  -1.94499
N     0.95273  -0.56468   1.15895
N     0.48385  -0.16688   2.11635
C    -1.44935   0.70052   1.08520
C    -1.01635   2.11264   1.41949
O    -0.39569   2.76691   0.53334
O    -1.35830   2.54719   2.55327
C    -1.38688   0.17581  -0.14200
C    -2.07808  -1.11167  -0.52188
O    -2.23757  -1.31903  -1.75546
O    -2.48073  -1.86513   0.41172
H     3.17676   2.99775   0.05591
H     1.85099   3.02626  -1.16081
H     3.40419   2.20315  -1.54447
H     1.40718  -3.25335   0.94177
H     0.43451  -4.12724  -0.29513
H    -0.35284  -2.98018   0.84237
H    -1.95408   0.13834   1.87778
H    -1.01394   0.78557  -0.97524
26

C     2.68227   2.44494  -0.74858
O     2.19171   1.24499  -0.14177
C     1.53122   0.39488  -0.93510
O     1.39871   0.53859  -2.13414
C     1.00220  -0.74262  -0.16771
C     0.76973  -2.07178  -0.73076
C     0.54956  -3.18801   0.25207
O     0.75971  -2.24132  -1.94513
N     0.94798  -0.56263   1.15333
N     0.50671  -0.17736   2.12780
C    -1.47322   0.71069   1.07455
C    -1.01892   2.11347   1.41826
O    -0.39426   2.76778   0.53411
O    -1.35712   2.54766   2.55404
C    -1.40523   0.18429  -0.14091
C    -2.08022  -1.11086  -0.52155
O    -2.23712  -1.31990  -1.75557
O    -2.48066  -1.86695   0.41138
H     3.17668   2.99812   0.05582
H     1.85088   3.02646  -1.16085
H     3.40409   2.20335  -1.54446
H     1.40692  -3.25425   0.94190
H     0.43386  -4.12746  -0.29503
H    -0.35311  -2.98011   0.84227
H    -1.95400   0.13802   1.87863
H    -1.01243   0.78458  -0.97556
26

C     2.68193   2.44584  -0.74858
O     2.19243   1.24621  -0.14139
C     1.53406   0.39403  -0.93462
O     1.39832   0.53824  -2.13340
C     1.02160  -0.74976  -0.16750
C     0.77232  -2.07336  -0.73019
C     0.54886  -3.18904   0.25243
O     0.75930  -2.24171  -1.94527
N     0.94322  -0.56057   1.14771
N     0.52956  -0.18783   2.13925
C    -1.49709   0.72086   1.06389
C    -1.02149   2.11430   1.41704
O    -0.39282   2.76864   0.53488
O    -1.35593   2.54812   2.55480
C    -1.42357   0.19277  -0.13981
C    -2.08235  -1.11006  -0.52123
O    -2.23666  -1.32078  -1.75567
O    -2.48059  -1.86877   0.41104
H     3.17661   2.99850   0.05572
H     1.85077   3.02666  -1.16090
H     3.40399   2.20354  -1.54446
H     1.40667  -3.25516   0.94202
H     0.43320  -4.12769  -0.29494
H    -0.35337  -2.98003   0.84216
H    -1.95393   0.13770   1.87947
H    -1.01093   0.78360  -0.97589
26

C     2.68160   2.44673  -0.74858
O     2.19314   1.24742  -0.14101
C     1.53691   0.39319  -0.93415
O     1.39793   0.53789  -2.13266
C     1.04100  -0.75690  -0.16728
C     0.77490  -2.07494  -0.72963
C     0.54816  -3.19007   0.25280
O     0.75889  -2.24210  -1.94541
N     0.93847  -0.55852   1.14209
N     0.55242  -0.19831   2.15070
C    -1.52096   0.73104   1.05323
C    -1.02406   2.11513   1.41581
O    -0.39139   2.76950   0.53565
O    -1.35474   2.54858   2.55557
C    -1.44192   0.20125  -0.13871
C    -2.08449  -1.10925  -0.52090
O    -2.23620  -1.32165  -1.75578
O    -2.48051  -1.87058   0.41070
H     3.17653   2.99887   0.05563
H     1.85066   3.02686  -1.16094
H     3.40388   2.20373  -1.54445
H     1.40642  -3.25606   0.94215
H     0.43255  -4.12791  -0.29485
H    -0.35363  -2.97996   0.84206
H    -1.95385   0.13738   1.88032
H    -1.00943   0.78261  -0.97622
