12

C 1.781950565 0.891865051 0.583585581
H 2.795657182 1.261539889 2.354205140
H 2.733141564 2.061400090 -0.826937292
C 1.829910397 -1.891015617 -0.072730664
H 1.428267420 -2.212427663 -2.083033769
H 3.625983112 -2.789858236 0.376371140
O -0.041738343 -3.127907733 1.415344680
C -2.391582354 -2.234775016 0.823984539
H -3.755677170 -3.050352465 2.125606634
H -2.914646981 -2.614165371 -1.146506647
O -2.645211039 0.500481416 1.137941294
C -0.778178088 2.084716910 1.036102630

