16

C -3.678124643 -1.227140600 0.095377237
C -2.601656613 1.076407219 0.880238416
N 0.810539081 1.054830912 3.347214928
C 0.375144670 1.648687079 0.867395932
C 1.637677137 0.208727526 -1.265497486
C 4.088115768 -0.987102958 -0.885584848
O 1.834368487 -2.447866543 -0.984740233
H -3.575633967 1.401970842 -1.096220298
H -5.323505892 -2.039477358 1.007987341
H -2.834242271 -2.266377662 -1.451834478
H -3.586207911 2.151349107 2.314961746
H 0.819272148 -0.868740642 3.499676029
H 0.604751742 3.671402245 0.491246778
H 1.131546593 0.813978042 -3.170115503
H 5.361702170 -1.250575528 -2.472094419
H 4.945681382 -0.847189714 0.972710728

