10

C 0.598596129 4.079995993 -0.205228037
C -1.261877904 2.431810221 -0.465903434
C -1.425487766 0.524599745 -2.540273111
O -3.847062303 0.707689980 -3.671777261
H -4.065246378 -0.686414933 -4.805775055
H 0.081104778 0.857196589 -3.925269224
H -1.146833665 -1.370875588 -1.738804168
H -2.803989778 2.382407772 0.889037812
H 0.655968724 5.389327093 1.366723595
H 2.139853733 4.180133544 -1.554287114

