16

N 4.283450729 -2.961715126 3.250228004
C 2.435451761 -1.579095930 2.294045841
O 0.210089886 -2.361461915 2.760213327
C 1.441694321 1.775952310 0.082119749
C -1.151575611 1.560002591 0.046574908
C -2.484536149 0.570440230 -2.237400280
O -2.802042566 2.542814094 -4.055240448
H 3.955963044 -4.535090798 4.283961617
H 6.082355331 -2.452346403 2.946824821
H 2.382571063 3.074663509 1.350597163
H 2.559162077 1.232771511 -1.545288616
H -0.905020644 -0.956618746 1.814431215
H -2.247240746 2.738889790 1.320963404
H -1.379255635 -0.981179233 -3.069092936
H -4.340432699 -0.197366436 -1.719593156
H -3.790335843 1.895991304 -5.430268804

