12

C 2.583885288 0.104617015 -0.175813429
C -0.227465672 0.254386163 -0.708354824
C -1.643757653 2.013304727 1.062172668
O -3.801927423 2.626011346 0.749937397
C -1.533325384 -2.308661342 -0.627073376
O -0.438649464 -4.264812587 -0.325648623
H 2.934873135 -0.652073281 1.710224253
H 3.515384113 -1.146470951 -1.517729550
H 3.457154356 1.968099794 -0.305331762
H -3.608606513 -2.233265559 -0.875060075
H -0.612532462 0.977248263 -2.613933256
H -0.557404691 2.686768687 2.724857855

