12

C 2.909621462 -0.299782808 0.145622616
C 0.153613909 -0.040608533 0.018322709
C -1.677587322 1.876121419 0.702785007
O -3.819476554 0.960668656 -0.294474397
C -1.680707467 -1.760688822 -1.156592834
O -1.823199639 -2.986350994 -3.061378073
H 3.794869391 1.112496207 1.350532043
H 3.338632491 -2.184036966 0.878555426
H 3.712189697 -0.240706586 -1.759873310
H -2.412778297 -2.438505709 0.778817552
H -0.746162990 3.268649489 -0.654971459
H -1.674053043 2.767553401 2.574285649

