14

C 2.327061416 -0.568734148 -1.183904951
C -0.099229103 -2.058369404 -0.692329304
C -2.338422393 -0.383525964 -0.875323749
C -1.599631792 -1.171129269 1.560358256
N 1.284450721 1.490582594 2.767959579
C 1.710910148 1.860781397 0.246011161
C -1.150078079 1.716702725 0.816718277
H 2.617579388 -0.299412006 -3.210928598
H 3.985541245 -1.473561510 -0.360869603
H -0.270737490 -4.039130816 -1.174757373
H -4.026620489 -0.108572004 -1.976292154
H -2.352530125 -1.944463629 3.279474653
H 2.227019145 3.710020348 -0.515110070
H -2.370190258 3.269242561 1.318927735

