14

C -3.662500803 -1.355693093 1.019483944
C -1.161532597 0.043956145 0.954812055
C 2.893666258 0.842854645 -1.686959721
O 3.456847635 2.338509755 0.444176346
C 0.342552601 -0.450512069 -1.409302148
O -0.373165371 -1.814504064 -3.087932372
H -4.676119018 -0.948585199 2.767369437
H -3.373974452 -3.391980726 0.893727225
H -4.858875981 -0.812141474 -0.567474777
H 0.044393994 -0.443611715 2.563243129
H 4.294455927 -0.655348233 -1.981179401
H 2.805938407 1.966381996 -3.426305484
H 5.067369635 3.127011511 0.203514433
H -1.411010045 2.091852743 1.110077528

