15

C -2.828115741 -1.781778524 1.089708056
C -1.000872012 -0.330128616 -0.494862032
C -1.872914856 1.214224416 -2.689868045
H -2.071646109 0.057951872 -4.394005509
H -0.506335259 2.705634824 -3.095189222
H -3.709768012 2.070859114 -2.306035228
N 1.367550369 -0.348790965 0.010876697
C 3.789746948 0.398917689 -0.426682547
H 4.598247373 0.010231469 -2.270420636
C 3.257798738 -1.635607113 1.481556620
H 3.392119659 -3.649611699 1.057872483
H 3.376318525 -1.168535638 3.478489119
H -3.816464501 -3.208380907 -0.032923375
H -1.869278400 -2.734143743 2.643609893
H -4.271241398 -0.527258174 1.876355386

