17

C -2.811295894 -1.616252594 1.152718253
C -0.987557248 -0.074386820 -0.353887802
C -1.952904922 1.443398004 -2.532996815
N 1.414953809 -0.738215180 -0.411175322
C 3.596059847 0.655795418 -0.321497707
C 3.153439917 -1.389931605 1.572645652
H -3.732467459 -3.038087897 -0.036841250
H -1.872052348 -2.578275447 2.711502046
H -4.290670636 -0.402200899 1.915386262
H 0.415846574 2.916518735 1.596850058
H -2.453711183 0.206947083 -4.116477231
H -0.517389835 2.773725304 -3.177616298
H -3.643983471 2.485211103 -1.988759887
H 1.990038286 2.841618439 1.049903716
H 5.003656763 0.696076650 -1.801148860
H 3.961446405 -3.270444483 1.444290200
H 2.628936000 -0.767050775 3.470364525

