9

C 1.787777120 -1.862883661 -1.289706654
O 2.019727358 -3.356819348 -2.973158533
C 2.959690096 0.748770283 -1.349544246
C 4.002594455 1.520642865 1.194714600
O 2.846030288 1.271248697 3.128401896
H 5.925144121 2.347393830 1.194949966
H 1.433882893 2.080105638 -1.791765066
H 4.366202120 0.856922767 -2.848653833
H 0.683399856 -2.302082280 0.428859039

