12

O 0.499914669 -2.748362968 -1.520577669
C 0.026374719 -0.339598071 -0.506721632
C -2.402520089 -0.209583421 0.988441451
C 0.347668808 1.791100184 -2.483607840
O 2.289875575 2.745844171 -1.255854232
C 2.385735825 0.820882137 0.713728657
H -0.503893128 -2.930883111 -3.024668102
H -3.998251600 -0.686498176 -0.228085805
H -2.339429768 -1.549300902 2.555549544
H -2.720842093 1.685757931 1.741439429
H 2.205376717 1.665585123 2.583900557
H 4.103976750 -0.296931154 0.553025289

