12

C -2.567462850 -0.499835697 -1.159026858
C 0.280028518 -0.240002078 -0.722629380
C 0.983424549 2.422051259 0.036601217
O 2.503944241 3.708128278 -1.046263309
C 1.174094967 -2.302240979 1.036303924
O 2.773628928 -1.336388218 2.654768329
H -3.023986742 -2.447443604 -1.646150556
H -3.623557837 -0.010942932 0.545912076
H -3.195039025 0.739029028 -2.681472559
H 1.284406331 -0.680211076 -2.486137579
H -0.033404519 3.166295213 1.716677932
H 3.381333782 -2.671068596 3.734428088

