12

C -2.303984402 -0.510055619 -0.667561344
C 0.534263464 -0.013111184 -0.679678589
C 1.127114032 2.782995639 -0.424388098
O 2.420316850 3.956504167 -1.859879904
C 1.953209565 -1.448866153 1.329027999
O 0.755566362 -3.229050561 2.501258903
H -2.687768257 -2.532806936 -0.667864758
H -3.192039576 0.287997398 1.015068750
H -3.186913599 0.326555162 -2.329766068
H 1.419182808 -0.628289717 -2.450593305
H 0.225135338 3.718519958 1.223356461
H 2.873329706 -2.863019682 2.994033241

