14

O -4.654372863 1.181601356 2.935335853
C -2.721317605 0.846707550 1.812014350
C -2.205444841 0.236954271 -0.987019281
N 0.483969254 -0.087407713 -0.331162919
C 2.555203233 0.779945945 -1.888459214
C -0.000561079 0.861465480 2.512016320
C 0.820910200 -1.754190356 1.838666084
H -2.449331572 1.867181767 -2.220285919
H -3.089606971 -1.434558886 -1.813604649
H 2.113329971 2.651986444 -2.625211727
H 2.892786704 -0.526302785 -3.450395448
H 4.243347150 0.916440825 -0.721622175
H 2.788422497 -2.227333312 2.174061990
H -0.425497254 -3.392426021 1.864514929

