14

C -3.038293764 -1.815413287 -1.160786609
C -1.077442241 -0.210823799 -2.413561797
C 0.997504105 1.676386835 1.470802831
C 0.613418517 1.286504437 -1.317713756
C 3.177771577 0.076381256 2.390659167
O 5.064391937 0.887572368 3.346334089
H -2.718373751 -3.810380471 -1.589469090
H -3.060356638 -1.610361940 0.887867486
H -4.919272006 -1.345891103 -1.871559375
H -1.060636566 -0.291571872 -4.465877085
H -0.679233067 1.109224713 2.536952579
H 1.409739053 3.648979227 1.902211810
H 1.918945807 2.310644326 -2.524581468
H 2.928962695 -1.986478798 2.086985677

