13

O 3.059720065 4.019234570 -0.228740179
C 1.522133103 2.357916619 -0.484299446
N 1.679118624 0.051708463 1.140429439
C 0.811169380 -1.987127919 -0.509106164
C -1.478407675 -0.424553619 -1.320224748
C -2.371138390 0.273881522 1.233070239
N -0.476616708 2.059505167 -1.991528997
H 3.330388485 -0.123659993 2.090984527
H 0.286906233 -3.680912972 0.547573543
H 2.142660240 -2.454949388 -2.019687107
H -2.818093276 -1.197967348 -2.673282713
H -3.409989759 2.028341674 1.424445298
H -2.252367384 -0.934040128 2.881606102

