14

C -4.134475417 -0.319284536 -0.710338356
C -1.402649046 -0.845647830 -0.615418698
C 0.400697584 -2.264943341 -0.980206988
C 3.992800949 -0.845802901 0.221710738
N 6.143746505 -1.287853834 0.424347374
O 2.308797289 2.624916061 1.508442661
C 0.027779390 2.638081915 1.065627465
H -5.034115897 -1.070302213 0.987824417
H -4.537694331 1.704834376 -0.784320283
H -5.016645587 -1.217236696 -2.342485871
H 1.352718419 -3.933269701 -1.593733994
H 7.960301565 -1.053761100 0.861094149
H -1.350954586 2.300310510 2.588816963
H -0.718581927 3.588435161 -0.630082084

