10

O 3.332018393 0.129557998 0.110526245
C 1.634056517 -1.829331952 0.495125989
C -2.052883207 2.440235810 -1.763605142
O -2.065837318 4.283823818 -2.936483238
C -2.099833869 0.341121209 -0.417809772
O -0.548316640 -1.652463999 -1.044480750
H 2.744174844 1.606852738 0.984566340
H 2.559741788 -3.569577924 -0.089997980
H 1.051058338 -1.942634733 2.483746981
H -3.486124519 0.149442792 1.076706665

