10

O 3.545044517 0.358934410 -0.288417012
C 1.955165413 -1.135997748 0.877971368
C -1.456957866 1.856411689 -0.375299344
O -0.587702689 3.462158805 -1.699609396
C -3.019211952 -0.349159972 -0.635860980
O -1.924968194 -2.395916120 -0.273815382
H 3.155434844 2.118915246 0.027993930
H 2.191879329 -3.094692810 0.374815101
H 1.177880788 -0.621306914 2.694592077
H -5.086853599 -0.228652477 -0.698936731

