14

O 2.473616972 -1.491416701 -0.419668412
C 1.682251109 -0.650468828 2.092490242
C 0.860828170 1.938191401 2.065821406
C -0.339232919 0.437263388 -2.128348494
C -2.332730179 -0.512178802 -0.343117157
C -1.096414883 -0.165405517 2.189362781
H 3.891277775 -0.417974178 -0.840953920
H 2.687858076 -1.665420793 3.559611924
H 1.212868576 3.247673869 3.597888289
H 0.171884991 -0.714461379 -3.744124084
H -0.179206924 2.444950601 -2.411838744
H -4.025798950 0.667104994 -0.564821678
H -2.836728281 -2.472846795 -0.750704871
H -2.109550651 -0.732647310 3.885827125

