18

C -1.819286224 -2.000271399 -1.630786100
C -1.319317869 0.579514903 -0.487135887
C -2.978692501 1.092760361 1.795896612
N 1.389826668 0.864178635 0.355972642
C 2.515513674 -1.351309231 1.765691248
C 3.251135280 1.303354861 -1.623491871
O 2.930541278 0.731816851 -3.786926097
H -1.542043654 -3.468884680 -0.214755714
H -3.775541820 -2.056267593 -2.279568064
H -0.593563410 -2.366244699 -3.240454284
H -1.592977216 2.036968822 -1.925465475
H -2.755006017 3.024725379 2.495379436
H -4.959289943 0.837020285 1.292591264
H -2.501478867 -0.229935034 3.305176874
H 4.089079717 -0.631267113 2.884842900
H 3.144726371 -2.725708327 0.367850705
H 1.447123599 2.336782319 1.584996940
H 4.990613759 2.103734774 -0.824914775

