14

C -1.670630238 0.400887955 -2.132360817
C -0.011316115 0.663138440 0.229233322
O 0.272450130 3.284762824 0.839454725
C -0.697686583 -1.100011089 2.259364416
C 2.597811284 -0.224407774 -0.359192509
O 3.102660708 -2.541548091 -0.815602885
H -3.590262394 0.896779699 -1.567934489
H -1.689998816 -1.518357109 -2.881967115
H -1.054035451 1.709962752 -3.598509026
H -0.714323713 3.529395185 2.343029602
H 0.082033427 -0.736314493 4.117774358
H -2.517051136 -2.031544571 2.152041408
H 4.217614277 1.049034064 -0.392894697
H 1.526870419 -3.392392384 -0.145693916

