25

C     3.93309  -2.91351   1.26874
N     3.09872  -1.94019   0.57859
C     2.38783  -1.03255   1.24994
O     2.45792  -0.83630   2.46271
C     1.29475  -0.26995   0.45078
N     1.24035   1.13590   0.87622
C     0.42383   1.60716  -0.12099
C    -0.21309   2.88384  -0.07245
N    -0.80331   3.88323  -0.03575
C     0.89477   0.96144  -1.38370
O     0.70060   1.23832  -2.53614
O     1.66443  -0.09287  -0.95715
C    -1.01247  -0.03590  -0.06627
Br   -2.63542   0.43696  -0.81562
C    -0.12408  -0.86723   0.48613
O    -0.14469  -2.11612   1.06841
C    -1.30906  -2.93523   1.20758
H     4.66914  -2.42066   1.91435
H     4.45789  -3.52939   0.52740
H     3.31602  -3.58260   1.90459
H     2.97315  -2.02529  -0.42317
H     1.03986   1.28723   1.85845
H    -0.94827  -3.88285   1.75356
H    -1.69897  -3.24621   0.24496
H    -2.06487  -2.47077   1.83233
25

C     3.93273  -2.91471   1.26919
N     3.09943  -1.94123   0.57896
C     2.39199  -1.03069   1.25025
O     2.45811  -0.83683   2.46367
C     1.32074  -0.25566   0.44814
N     1.23710   1.13254   0.87514
C     0.43449   1.61647  -0.12434
C    -0.21072   2.88607  -0.07203
N    -0.80426   3.88377  -0.03515
C     0.89507   0.96644  -1.38350
O     0.69955   1.23699  -2.53748
O     1.66419  -0.09168  -0.95497
C    -1.02556  -0.04955  -0.06542
Br   -2.63708   0.44132  -0.81823
C    -0.14958  -0.88011   0.48684
O    -0.14383  -2.11891   1.07114
C    -1.30699  -2.94169   1.21127
H     4.66898  -2.42101   1.91457
H     4.45782  -3.52975   0.52756
H     3.31586  -3.58293   1.90468
H     2.97424  -2.02484  -0.42324
H     1.04271   1.28772   1.85849
H    -0.94718  -3.88457   1.75451
H    -1.69821  -3.24780   0.24592
H    -2.06426  -2.47270   1.83340
25

C     3.93237  -2.91592   1.26964
N     3.10014  -1.94227   0.57933
C     2.39616  -1.02883   1.25055
O     2.45830  -0.83737   2.46464
C     1.34674  -0.24137   0.44549
N     1.23385   1.12919   0.87406
C     0.44515   1.62577  -0.12770
C    -0.20836   2.88830  -0.07161
N    -0.80522   3.88432  -0.03455
C     0.89537   0.97143  -1.38329
O     0.69849   1.23566  -2.53882
O     1.66395  -0.09049  -0.95278
C    -1.03866  -0.06321  -0.06456
Br   -2.63875   0.44567  -0.82085
C    -0.17508  -0.89300   0.48756
O    -0.14297  -2.12170   1.07388
C    -1.30493  -2.94814   1.21496
H     4.66883  -2.42136   1.91478
H     4.45774  -3.53011   0.52773
H     3.31571  -3.58326   1.90477
H     2.97534  -2.02440  -0.42331
H     1.04557   1.28821   1.85853
H    -0.94609  -3.88629   1.75545
H    -1.69745  -3.24938   0.24688
H    -2.06364  -2.47463   1.83447
25

C     3.93201  -2.91712   1.27008
N     3.10085  -1.94332   0.57970
C     2.40032  -1.02697   1.25085
O     2.45849  -0.83791   2.46560
C     1.37274  -0.22708   0.44285
N     1.23059   1.12583   0.87299
C     0.45581   1.63507  -0.13105
C    -0.20599   2.89053  -0.07120
N    -0.80617   3.88487  -0.03394
C     0.89566   0.97643  -1.38309
O     0.69744   1.23433  -2.54016
O     1.66371  -0.08931  -0.95060
C    -1.05175  -0.07687  -0.06371
Br   -2.64041   0.45003  -0.82347
C    -0.20058  -0.90589   0.48828
O    -0.14211  -2.12449   1.07661
C    -1.30287  -2.95460   1.21865
H     4.66868  -2.42171   1.91500
H     4.45767  -3.53047   0.52789
H     3.31555  -3.58359   1.90486
H     2.97643  -2.02395  -0.42337
H     1.04842   1.28870   1.85857
H    -0.94499  -3.88801   1.75639
H    -1.69668  -3.25097   0.24785
H    -2.06302  -2.47656   1.83554
25

C     3.93165  -2.91832   1.27053
N     3.10155  -1.94436   0.58006
C     2.40449  -1.02511   1.25116
O     2.45868  -0.83844   2.46656
C     1.39874  -0.21279   0.44021
N     1.22734   1.12247   0.87191
C     0.46648   1.64438  -0.13440
C    -0.20362   2.89275  -0.07078
N    -0.80712   3.88541  -0.03334
C     0.89596   0.98143  -1.38289
O     0.69639   1.23300  -2.54150
O     1.66347  -0.08812  -0.94841
C    -1.06484  -0.09053  -0.06285
Br   -2.64207   0.45438  -0.82608
C    -0.22609  -0.91878   0.48899
O    -0.14125  -2.12728   1.07934
C    -1.30081  -2.96105   1.22234
H     4.66853  -2.42207   1.91521
H     4.45760  -3.53083   0.52806
H     3.31539  -3.58392   1.90495
H     2.97752  -2.02351  -0.42344
H     1.05128   1.28919   1.85861
H    -0.94390  -3.88973   1.75734
H    -1.69592  -3.25256   0.24881
H    -2.06240  -2.47849   1.83661
25

C     3.93129  -2.91952   1.27098
N     3.10226  -1.94540   0.58043
C     2.40866  -1.02325   1.25146
O     2.45887  -0.83898   2.46753
C     1.42474  -0.19850   0.43756
N     1.22409   1.11912   0.87083
C     0.47714   1.65368  -0.13776
C    -0.20125   2.89498  -0.07037
N    -0.80807   3.88596  -0.03274
C     0.89626   0.98643  -1.38268
O     0.69533   1.23167  -2.54284
O     1.66323  -0.08693  -0.94623
C    -1.07794  -0.10418  -0.06200
Br   -2.64374   0.45874  -0.82870
C    -0.25159  -0.93167   0.48971
O    -0.14039  -2.13007   1.08208
C    -1.29875  -2.96751   1.22603
H     4.66837  -2.42242   1.91543
H     4.45752  -3.53119   0.52822
H     3.31524  -3.58425   1.90504
H     2.97862  -2.02306  -0.42351
H     1.05413   1.28968   1.85864
H    -0.94281  -3.89146   1.75828
H    -1.69516  -3.25414   0.24977
H    -2.06178  -2.48041   1.83768
25

C     3.93093  -2.92073   1.27142
N     3.10297  -1.94644   0.58080
C     2.41282  -1.02139   1.25177
O     2.45906  -0.83951   2.46849
C     1.45073  -0.18421   0.43492
N     1.22084   1.11576   0.86975
C     0.48780   1.66298  -0.14111
C    -0.19889   2.89721  -0.06995
N    -0.80902   3.88651  -0.03214
C     0.89656   0.99143  -1.38248
O     0.69428   1.23035  -2.54418
O     1.66299  -0.08575  -0.94404
C    -1.09103  -0.11784  -0.06115
Br   -2.64540   0.46309  -0.83132
C    -0.27709  -0.94456   0.49043
O    -0.13953  -2.13286   1.08481
C    -1.29669  -2.97397   1.22972
H     4.66822  -2.42277   1.91565
H     4.45745  -3.53155   0.52839
H     3.31508  -3.58458   1.90513
H     2.97971  -2.02262  -0.42357
H     1.05698   1.29017   1.85868
H    -0.94172  -3.89318   1.75923
H    -1.69439  -3.25573   0.25074
H    -2.06117  -2.48234   1.83875
25

C     3.93057  -2.92193   1.27187
N     3.10368  -1.94749   0.58116
C     2.41699  -1.01953   1.25207
O     2.45925  -0.84005   2.46945
C     1.47673  -0.16992   0.43227
N     1.21759   1.11241   0.86868
C     0.49846   1.67229  -0.14446
C    -0.19652   2.89944  -0.06954
N    -0.80997   3.88705  -0.03154
C     0.89686   0.99643  -1.38227
O     0.69323   1.22902  -2.54551
O     1.66275  -0.08456  -0.94186
C    -1.10412  -0.13150  -0.06029
Br   -2.64706   0.46745  -0.83394
C    -0.30260  -0.95744   0.49115
O    -0.13867  -2.13565   1.08754
C    -1.29463  -2.98042   1.23341
H     4.66807  -2.42312   1.91586
H     4.45737  -3.53191   0.52855
H     3.31493  -3.58491   1.90522
H     2.98080  -2.02217  -0.42364
H     1.05984   1.29066   1.85872
H    -0.94063  -3.89490   1.76017
H    -1.69363  -3.25732   0.25170
H    -2.06055  -2.48427   1.83981
25

C     3.93021  -2.92313   1.27232
N     3.10438  -1.94853   0.58153
C     2.42116  -1.01767   1.25238
O     2.45944  -0.84058   2.47041
C     1.50273  -0.15563   0.42963
N     1.21434   1.10905   0.86760
C     0.50913   1.68159  -0.14782
C    -0.19415   2.90167  -0.06912
N    -0.81092   3.88760  -0.03094
C     0.89715   1.00143  -1.38207
O     0.69217   1.22769  -2.54685
O     1.66251  -0.08337  -0.93967
C    -1.11721  -0.14515  -0.05944
Br   -2.64872   0.47180  -0.83655
C    -0.32810  -0.97033   0.49186
O    -0.13782  -2.13844   1.09028
C    -1.29257  -2.98688   1.23710
H     4.66792  -2.42347   1.91608
H     4.45730  -3.53227   0.52872
H     3.31477  -3.58524   1.90531
H     2.98189  -2.02173  -0.42371
H     1.06269   1.29115   1.85876
H    -0.93954  -3.89662   1.76111
H    -1.69287  -3.25891   0.25267
H    -2.05993  -2.48620   1.84088
25

C     3.92985  -2.92433   1.27276
N     3.10509  -1.94957   0.58190
C     2.42532  -1.01581   1.25268
O     2.45963  -0.84112   2.47138
C     1.52873  -0.14134   0.42698
N     1.21109   1.10569   0.86652
C     0.51979   1.69089  -0.15117
C    -0.19178   2.90390  -0.06871
N    -0.81187   3.88815  -0.03033
C     0.89745   1.00643  -1.38187
O     0.69112   1.22636  -2.54819
O     1.66227  -0.08219  -0.93749
C    -1.13031  -0.15881  -0.05858
Br   -2.65039   0.47616  -0.83917
C    -0.35360  -0.98322   0.49258
O    -0.13696  -2.14123   1.09301
C    -1.29051  -2.99334   1.24080
H     4.66776  -2.42382   1.91629
H     4.45723  -3.53263   0.52888
H     3.31461  -3.58557   1.90540
H     2.98299  -2.02128  -0.42377
H     1.06554   1.29164   1.85880
H    -0.93845  -3.89834   1.76206
H    -1.69210  -3.26049   0.25363
H    -2.05931  -2.48813   1.84195
25

C     3.92950  -2.92554   1.27321
N     3.10580  -1.95061   0.58226
C     2.42949  -1.01395   1.25298
O     2.45982  -0.84165   2.47234
C     1.55473  -0.12705   0.42434
N     1.20784   1.10234   0.86545
C     0.53045   1.70020  -0.15452
C    -0.18941   2.90613  -0.06829
N    -0.81282   3.88870  -0.02973
C     0.89775   1.01143  -1.38166
O     0.69007   1.22503  -2.54953
O     1.66203  -0.08100  -0.93530
C    -1.14340  -0.17247  -0.05773
Br   -2.65205   0.48051  -0.84179
C    -0.37911  -0.99611   0.49330
O    -0.13610  -2.14402   1.09574
C    -1.28845  -2.99979   1.24449
H     4.66761  -2.42418   1.91651
H     4.45715  -3.53299   0.52905
H     3.31446  -3.58590   1.90549
H     2.98408  -2.02083  -0.42384
H     1.06840   1.29213   1.85884
H    -0.93736  -3.90006   1.76300
H    -1.69134  -3.26208   0.25459
H    -2.05869  -2.49006   1.84302
25

C     3.92914  -2.92674   1.27365
N     3.10651  -1.95166   0.58263
C     2.43366  -1.01209   1.25329
O     2.46001  -0.84219   2.47330
C     1.58073  -0.11276   0.42169
N     1.20459   1.09898   0.86437
C     0.54111   1.70950  -0.15788
C    -0.18705   2.90836  -0.06787
N    -0.81378   3.88924  -0.02913
C     0.89805   1.01643  -1.38146
O     0.68901   1.22370  -2.55087
O     1.66178  -0.07981  -0.93312
C    -1.15649  -0.18613  -0.05688
Br   -2.65371   0.48487  -0.84440
C    -0.40461  -1.00900   0.49402
O    -0.13524  -2.14681   1.09848
C    -1.28639  -3.00625   1.24818
H     4.66746  -2.42453   1.91672
H     4.45708  -3.53335   0.52921
H     3.31430  -3.58623   1.90558
H     2.98517  -2.02039  -0.42391
H     1.07125   1.29262   1.85887
H    -0.93627  -3.90178   1.76394
H    -1.69058  -3.26367   0.25556
H    -2.05808  -2.49199   1.84409
25

C     3.92878  -2.92794   1.27410
N     3.10722  -1.95270   0.58300
C     2.43782  -1.01023   1.25359
O     2.46019  -0.84272   2.47427
C     1.60672  -0.09847   0.41905
N     1.20134   1.09562   0.86329
C     0.55178   1.71880  -0.16123
C    -0.18468   2.91059  -0.06746
N    -0.81473   3.88979  -0.02853
C     0.89835   1.02143  -1.38125
O     0.68796   1.22237  -2.55221
O     1.66154  -0.07863  -0.93093
C    -1.16958  -0.19978  -0.05602
Br   -2.65538   0.48922  -0.84702
C    -0.43011  -1.02189   0.49473
O    -0.13438  -2.14960   1.10121
C    -1.28433  -3.01271   1.25187
H     4.66731  -2.42488   1.91694
H     4.45700  -3.53371   0.52938
H     3.31414  -3.58657   1.90567
H     2.98626  -2.01994  -0.42398
H     1.07410   1.29311   1.85891
H    -0.93518  -3.90350   1.76489
H    -1.68981  -3.26526   0.25652
H    -2.05746  -2.49392   1.84516
25

C     3.92842  -2.92914   1.27455
N     3.10792  -1.95374   0.58336
C     2.44199  -1.00837   1.25390
O     2.46038  -0.84326   2.47523
C     1.63272  -0.08418   0.41641
N     1.19808   1.09227   0.86221
C     0.56244   1.72811  -0.16458
C    -0.18231   2.91282  -0.06704
N    -0.81568   3.89034  -0.02793
C     0.89864   1.02643  -1.38105
O     0.68691   1.22104  -2.55355
O     1.66130  -0.07744  -0.92875
C    -1.18268  -0.21344  -0.05517
Br   -2.65704   0.49358  -0.84964
C    -0.45561  -1.03477   0.49545
O    -0.13352  -2.15239   1.10394
C    -1.28227  -3.01916   1.25556
H     4.66715  -2.42523   1.91716
H     4.45693  -3.53407   0.52954
H     3.31399  -3.58690   1.90576
H     2.98736  -2.01950  -0.42404
H     1.07696   1.29360   1.85895
H    -0.93409  -3.90522   1.76583
H    -1.68905  -3.26684   0.25748
H    -2.05684  -2.49585   1.84623
25

C     3.92806  -2.93035   1.27499
N     3.10863  -1.95478   0.58373
C     2.44616  -1.00651   1.25420
O     2.46057  -0.84379   2.47619
C     1.65872  -0.06989   0.41376
N     1.19483   1.08891   0.86114
C     0.57310   1.73741  -0.16794
C    -0.17994   2.91505  -0.06663
N    -0.81663   3.89088  -0.02733
C     0.89894   1.03143  -1.38084
O     0.68585   1.21971  -2.55489
O     1.66106  -0.07625  -0.92656
C    -1.19577  -0.22710  -0.05432
Br   -2.65870   0.49793  -0.85225
C    -0.48112  -1.04766   0.49617
O    -0.13266  -2.15518   1.10668
C    -1.28021  -3.02562   1.25925
H     4.66700  -2.42558   1.91737
H     4.45685  -3.53443   0.52971
H     3.31383  -3.58723   1.90585
H     2.98845  -2.01905  -0.42411
H     1.07981   1.29409   1.85899
H    -0.93300  -3.90694   1.76677
H    -1.68829  -3.26843   0.25845
H    -2.05622  -2.49778   1.84730
25

C     3.92770  -2.93155   1.27544
N     3.10934  -1.95583   0.58410
C     2.45032  -1.00465   1.25451
O     2.46076  -0.84433   2.47715
C     1.68472  -0.05560   0.41112
N     1.19158   1.08556   0.86006
C     0.58376   1.74671  -0.17129
C    -0.17758   2.91728  -0.06621
N    -0.81758   3.89143  -0.02672
C     0.89924   1.03643  -1.38064
O     0.68480   1.21838  -2.55623
O     1.66082  -0.07507  -0.92438
C    -1.20886  -0.24076  -0.05346
Br   -2.66036   0.50229  -0.85487
C    -0.50662  -1.06055   0.49688
O    -0.13180  -2.15797   1.10941
C    -1.27815  -3.03207   1.26294
H     4.66685  -2.42593   1.91759
H     4.45678  -3.53479   0.52988
H     3.31368  -3.58756   1.90594
H     2.98954  -2.01861  -0.42418
H     1.08267   1.29458   1.85903
H    -0.93191  -3.90867   1.76772
H    -1.68752  -3.27002   0.25941
H    -2.05561  -2.49970   1.84837
25

C     3.92734  -2.93275   1.27589
N     3.11005  -1.95687   0.58446
C     2.45449  -1.00280   1.25481
O     2.46095  -0.84486   2.47812
C     1.71072  -0.04131   0.40847
N     1.18833   1.08220   0.85898
C     0.59443   1.75602  -0.17464
C    -0.17521   2.91951  -0.06580
N    -0.81853   3.89198  -0.02612
C     0.89954   1.04142  -1.38044
O     0.68375   1.21705  -2.55757
O     1.66058  -0.07388  -0.92219
C    -1.22196  -0.25441  -0.05261
Br   -2.66203   0.50664  -0.85749
C    -0.53212  -1.07344   0.49760
O    -0.13094  -2.16076   1.11214
C    -1.27608  -3.03853   1.26663
H     4.66670  -2.42629   1.91780
H     4.45671  -3.53515   0.53004
H     3.31352  -3.58789   1.90603
H     2.99063  -2.01816  -0.42424
H     1.08552   1.29507   1.85906
H    -0.93082  -3.91039   1.76866
H    -1.68676  -3.27160   0.26038
H    -2.05499  -2.50163   1.84944
25

C     3.92698  -2.93395   1.27633
N     3.11075  -1.95791   0.58483
C     2.45866  -1.00094   1.25511
O     2.46114  -0.84540   2.47908
C     1.73671  -0.02702   0.40583
N     1.18508   1.07884   0.85790
C     0.60509   1.76532  -0.17800
C    -0.17284   2.92174  -0.06538
N    -0.81948   3.89252  -0.02552
C     0.89984   1.04642  -1.38023
O     0.68269   1.21572  -2.55891
O     1.66034  -0.07269  -0.92001
C    -1.23505  -0.26807  -0.05175
Br   -2.66369   0.51100  -0.86010
C    -0.55763  -1.08633   0.49832
O    -0.13009  -2.16355   1.11488
C    -1.27402  -3.04499   1.27032
H     4.66654  -2.42664   1.91802
H     4.45663  -3.53551   0.53021
H     3.31336  -3.58822   1.90612
H     2.99173  -2.01772  -0.42431
H     1.08837   1.29556   1.85910
H    -0.92973  -3.91211   1.76961
H    -1.68600  -3.27319   0.26134
H    -2.05437  -2.50356   1.85051
25

C     3.92662  -2.93516   1.27678
N     3.11146  -1.95895   0.58520
C     2.46282  -0.99908   1.25542
O     2.46133  -0.84593   2.48004
C     1.76271  -0.01274   0.40318
N     1.18183   1.07549   0.85683
C     0.61575   1.77462  -0.18135
C    -0.17047   2.92397  -0.06497
N    -0.82043   3.89307  -0.02492
C     0.90013   1.05142  -1.38003
O     0.68164   1.21439  -2.56025
O     1.66010  -0.07151  -0.91782
C    -1.24814  -0.28173  -0.05090
Br   -2.66535   0.51535  -0.86272
C    -0.58313  -1.09922   0.49904
O    -0.12923  -2.16634   1.11761
C    -1.27196  -3.05144   1.27402
H     4.66639  -2.42699   1.91824
H     4.45656  -3.53587   0.53037
H     3.31321  -3.58855   1.90622
H     2.99282  -2.01727  -0.42438
H     1.09123   1.29605   1.85914
H    -0.92864  -3.91383   1.77055
H    -1.68523  -3.27478   0.26230
H    -2.05375  -2.50549   1.85158
25

C     3.92626  -2.93636   1.27723
N     3.11217  -1.96000   0.58556
C     2.46699  -0.99722   1.25572
O     2.46152  -0.84647   2.48101
C     1.78871   0.00155   0.40054
N     1.17858   1.07213   0.85575
C     0.62641   1.78393  -0.18470
C    -0.16811   2.92620  -0.06455
N    -0.82139   3.89362  -0.02432
C     0.90043   1.05642  -1.37982
O     0.68059   1.21306  -2.56159
O     1.65986  -0.07032  -0.91564
C    -1.26123  -0.29538  -0.05005
Br   -2.66702   0.51971  -0.86534
C    -0.60863  -1.11210   0.49975
O    -0.12837  -2.16913   1.12034
C    -1.26990  -3.05790   1.27771
H     4.66624  -2.42734   1.91845
H     4.45648  -3.53623   0.53054
H     3.31305  -3.58888   1.90631
H     2.99391  -2.01683  -0.42445
H     1.09408   1.29654   1.85918
H    -0.92755  -3.91555   1.77149
H    -1.68447  -3.27637   0.26327
H    -2.05313  -2.50742   1.85264
25

C     3.92590  -2.93756   1.27767
N     3.11288  -1.96104   0.58593
C     2.47115  -0.99536   1.25603
O     2.46171  -0.84700   2.48197
C     1.81471   0.01584   0.39790
N     1.17533   1.06878   0.85467
C     0.63708   1.79323  -0.18805
C    -0.16574   2.92843  -0.06413
N    -0.82234   3.89416  -0.02372
C     0.90073   1.06142  -1.37962
O     0.67953   1.21174  -2.56293
O     1.65962  -0.06913  -0.91345
C    -1.27433  -0.30904  -0.04919
Br   -2.66868   0.52406  -0.86796
C    -0.63414  -1.12499   0.50047
O    -0.12751  -2.17192   1.12308
C    -1.26784  -3.06436   1.28140
H     4.66609  -2.42769   1.91867
H     4.45641  -3.53659   0.53070
H     3.31289  -3.58921   1.90640
H     2.99500  -2.01638  -0.42451
H     1.09693   1.29703   1.85922
H    -0.92646  -3.91727   1.77244
H    -1.68371  -3.27795   0.26423
H    -2.05252  -2.50935   1.85371
25

C     3.92626  -2.93636   1.27723
N     3.11217  -1.96000   0.58556
C     2.46699  -0.99722   1.25572
O     2.46152  -0.84647   2.48101
C     1.78871   0.00155   0.40054
N     1.17858   1.07213   0.85575
C     0.62641   1.78393  -0.18470
C    -0.16811   2.92620  -0.06455
N    -0.82139   3.89362  -0.02432
C     0.90043   1.05642  -1.37982
O     0.68059   1.21306  -2.56159
O     1.65986  -0.07032  -0.91564
C    -1.26123  -0.29538  -0.05005
Br   -2.66702   0.51971  -0.86534
C    -0.60863  -1.11210   0.49975
O    -0.12837  -2.16913   1.12034
C    -1.26990  -3.05790   1.27771
H     4.66624  -2.42734   1.91845
H     4.45648  -3.53623   0.53054
H     3.31305  -3.58888   1.90631
H     2.99391  -2.01683  -0.42445
H     1.09408   1.29654   1.85918
H    -0.92755  -3.91555   1.77149
H    -1.68447  -3.27637   0.26327
H    -2.05313  -2.50742   1.85264
25

C     3.92662  -2.93516   1.27678
N     3.11146  -1.95895   0.58520
C     2.46282  -0.99908   1.25542
O     2.46133  -0.84593   2.48004
C     1.76271  -0.01274   0.40318
N     1.18183   1.07549   0.85683
C     0.61575   1.77462  -0.18135
C    -0.17047   2.92397  -0.06497
N    -0.82043   3.89307  -0.02492
C     0.90013   1.05142  -1.38003
O     0.68164   1.21439  -2.56025
O     1.66010  -0.07151  -0.91782
C    -1.24814  -0.28173  -0.05090
Br   -2.66535   0.51535  -0.86272
C    -0.58313  -1.09922   0.49904
O    -0.12923  -2.16634   1.11761
C    -1.27196  -3.05144   1.27402
H     4.66639  -2.42699   1.91824
H     4.45656  -3.53587   0.53037
H     3.31321  -3.58855   1.90622
H     2.99282  -2.01727  -0.42438
H     1.09123   1.29605   1.85914
H    -0.92864  -3.91383   1.77055
H    -1.68523  -3.27478   0.26230
H    -2.05375  -2.50549   1.85158
25

C     3.92698  -2.93395   1.27633
N     3.11075  -1.95791   0.58483
C     2.45866  -1.00094   1.25511
O     2.46114  -0.84540   2.47908
C     1.73671  -0.02702   0.40583
N     1.18508   1.07884   0.85790
C     0.60509   1.76532  -0.17800
C    -0.17284   2.92174  -0.06538
N    -0.81948   3.89252  -0.02552
C     0.89984   1.04642  -1.38023
O     0.68269   1.21572  -2.55891
O     1.66034  -0.07269  -0.92001
C    -1.23505  -0.26807  -0.05175
Br   -2.66369   0.51100  -0.86010
C    -0.55763  -1.08633   0.49832
O    -0.13009  -2.16355   1.11488
C    -1.27402  -3.04499   1.27032
H     4.66654  -2.42664   1.91802
H     4.45663  -3.53551   0.53021
H     3.31336  -3.58822   1.90612
H     2.99173  -2.01772  -0.42431
H     1.08837   1.29556   1.85910
H    -0.92973  -3.91211   1.76961
H    -1.68600  -3.27319   0.26134
H    -2.05437  -2.50356   1.85051
25

C     3.92734  -2.93275   1.27589
N     3.11005  -1.95687   0.58446
C     2.45449  -1.00280   1.25481
O     2.46095  -0.84486   2.47812
C     1.71072  -0.04131   0.40847
N     1.18833   1.08220   0.85898
C     0.59443   1.75602  -0.17464
C    -0.17521   2.91951  -0.06580
N    -0.81853   3.89198  -0.02612
C     0.89954   1.04142  -1.38044
O     0.68375   1.21705  -2.55757
O     1.66058  -0.07388  -0.92219
C    -1.22196  -0.25441  -0.05261
Br   -2.66203   0.50664  -0.85749
C    -0.53212  -1.07344   0.49760
O    -0.13094  -2.16076   1.11214
C    -1.27608  -3.03853   1.26663
H     4.66670  -2.42629   1.91780
H     4.45671  -3.53515   0.53004
H     3.31352  -3.58789   1.90603
H     2.99063  -2.01816  -0.42424
H     1.08552   1.29507   1.85906
H    -0.93082  -3.91039   1.76866
H    -1.68676  -3.27160   0.26038
H    -2.05499  -2.50163   1.84944
25

C     3.92770  -2.93155   1.27544
N     3.10934  -1.95583   0.58410
C     2.45032  -1.00465   1.25451
O     2.46076  -0.84433   2.47715
C     1.68472  -0.05560   0.41112
N     1.19158   1.08556   0.86006
C     0.58376   1.74671  -0.17129
C    -0.17758   2.91728  -0.06621
N    -0.81758   3.89143  -0.02672
C     0.89924   1.03643  -1.38064
O     0.68480   1.21838  -2.55623
O     1.66082  -0.07507  -0.92438
C    -1.20886  -0.24076  -0.05346
Br   -2.66036   0.50229  -0.85487
C    -0.50662  -1.06055   0.49688
O    -0.13180  -2.15797   1.10941
C    -1.27815  -3.03207   1.26294
H     4.66685  -2.42593   1.91759
H     4.45678  -3.53479   0.52988
H     3.31368  -3.58756   1.90594
H     2.98954  -2.01861  -0.42418
H     1.08267   1.29458   1.85903
H    -0.93191  -3.90867   1.76772
H    -1.68752  -3.27002   0.25941
H    -2.05561  -2.49970   1.84837
25

C     3.92806  -2.93035   1.27499
N     3.10863  -1.95478   0.58373
C     2.44616  -1.00651   1.25420
O     2.46057  -0.84379   2.47619
C     1.65872  -0.06989   0.41376
N     1.19483   1.08891   0.86114
C     0.57310   1.73741  -0.16794
C    -0.17994   2.91505  -0.06663
N    -0.81663   3.89088  -0.02733
C     0.89894   1.03143  -1.38084
O     0.68585   1.21971  -2.55489
O     1.66106  -0.07625  -0.92656
C    -1.19577  -0.22710  -0.05432
Br   -2.65870   0.49793  -0.85225
C    -0.48112  -1.04766   0.49617
O    -0.13266  -2.15518   1.10668
C    -1.28021  -3.02562   1.25925
H     4.66700  -2.42558   1.91737
H     4.45685  -3.53443   0.52971
H     3.31383  -3.58723   1.90585
H     2.98845  -2.01905  -0.42411
H     1.07981   1.29409   1.85899
H    -0.93300  -3.90694   1.76677
H    -1.68829  -3.26843   0.25845
H    -2.05622  -2.49778   1.84730
25

C     3.92842  -2.92914   1.27455
N     3.10792  -1.95374   0.58336
C     2.44199  -1.00837   1.25390
O     2.46038  -0.84326   2.47523
C     1.63272  -0.08418   0.41641
N     1.19808   1.09227   0.86221
C     0.56244   1.72811  -0.16458
C    -0.18231   2.91282  -0.06704
N    -0.81568   3.89034  -0.02793
C     0.89864   1.02643  -1.38105
O     0.68691   1.22104  -2.55355
O     1.66130  -0.07744  -0.92875
C    -1.18268  -0.21344  -0.05517
Br   -2.65704   0.49358  -0.84964
C    -0.45561  -1.03477   0.49545
O    -0.13352  -2.15239   1.10394
C    -1.28227  -3.01916   1.25556
H     4.66715  -2.42523   1.91716
H     4.45693  -3.53407   0.52954
H     3.31399  -3.58690   1.90576
H     2.98736  -2.01950  -0.42404
H     1.07696   1.29360   1.85895
H    -0.93409  -3.90522   1.76583
H    -1.68905  -3.26684   0.25748
H    -2.05684  -2.49585   1.84623
25

C     3.92878  -2.92794   1.27410
N     3.10722  -1.95270   0.58300
C     2.43782  -1.01023   1.25359
O     2.46019  -0.84272   2.47427
C     1.60672  -0.09847   0.41905
N     1.20134   1.09562   0.86329
C     0.55178   1.71880  -0.16123
C    -0.18468   2.91059  -0.06746
N    -0.81473   3.88979  -0.02853
C     0.89835   1.02143  -1.38125
O     0.68796   1.22237  -2.55221
O     1.66154  -0.07863  -0.93093
C    -1.16958  -0.19978  -0.05602
Br   -2.65538   0.48922  -0.84702
C    -0.43011  -1.02189   0.49473
O    -0.13438  -2.14960   1.10121
C    -1.28433  -3.01271   1.25187
H     4.66731  -2.42488   1.91694
H     4.45700  -3.53371   0.52938
H     3.31414  -3.58657   1.90567
H     2.98626  -2.01994  -0.42398
H     1.07410   1.29311   1.85891
H    -0.93518  -3.90350   1.76489
H    -1.68981  -3.26526   0.25652
H    -2.05746  -2.49392   1.84516
25

C     3.92914  -2.92674   1.27365
N     3.10651  -1.95166   0.58263
C     2.43366  -1.01209   1.25329
O     2.46001  -0.84219   2.47330
C     1.58073  -0.11276   0.42169
N     1.20459   1.09898   0.86437
C     0.54111   1.70950  -0.15788
C    -0.18705   2.90836  -0.06787
N    -0.81378   3.88924  -0.02913
C     0.89805   1.01643  -1.38146
O     0.68901   1.22370  -2.55087
O     1.66178  -0.07981  -0.93312
C    -1.15649  -0.18613  -0.05688
Br   -2.65371   0.48487  -0.84440
C    -0.40461  -1.00900   0.49402
O    -0.13524  -2.14681   1.09848
C    -1.28639  -3.00625   1.24818
H     4.66746  -2.42453   1.91672
H     4.45708  -3.53335   0.52921
H     3.31430  -3.58623   1.90558
H     2.98517  -2.02039  -0.42391
H     1.07125   1.29262   1.85887
H    -0.93627  -3.90178   1.76394
H    -1.69058  -3.26367   0.25556
H    -2.05808  -2.49199   1.84409
25

C     3.92950  -2.92554   1.27321
N     3.10580  -1.95061   0.58226
C     2.42949  -1.01395   1.25298
O     2.45982  -0.84165   2.47234
C     1.55473  -0.12705   0.42434
N     1.20784   1.10234   0.86545
C     0.53045   1.70020  -0.15452
C    -0.18941   2.90613  -0.06829
N    -0.81282   3.88870  -0.02973
C     0.89775   1.01143  -1.38166
O     0.69007   1.22503  -2.54953
O     1.66203  -0.08100  -0.93530
C    -1.14340  -0.17247  -0.05773
Br   -2.65205   0.48051  -0.84179
C    -0.37911  -0.99611   0.49330
O    -0.13610  -2.14402   1.09574
C    -1.28845  -2.99979   1.24449
H     4.66761  -2.42418   1.91651
H     4.45715  -3.53299   0.52905
H     3.31446  -3.58590   1.90549
H     2.98408  -2.02083  -0.42384
H     1.06840   1.29213   1.85884
H    -0.93736  -3.90006   1.76300
H    -1.69134  -3.26208   0.25459
H    -2.05869  -2.49006   1.84302
25

C     3.92985  -2.92433   1.27276
N     3.10509  -1.94957   0.58190
C     2.42532  -1.01581   1.25268
O     2.45963  -0.84112   2.47138
C     1.52873  -0.14134   0.42698
N     1.21109   1.10569   0.86652
C     0.51979   1.69089  -0.15117
C    -0.19178   2.90390  -0.06871
N    -0.81187   3.88815  -0.03033
C     0.89745   1.00643  -1.38187
O     0.69112   1.22636  -2.54819
O     1.66227  -0.08219  -0.93749
C    -1.13031  -0.15881  -0.05858
Br   -2.65039   0.47616  -0.83917
C    -0.35360  -0.98322   0.49258
O    -0.13696  -2.14123   1.09301
C    -1.29051  -2.99334   1.24080
H     4.66776  -2.42382   1.91629
H     4.45723  -3.53263   0.52888
H     3.31461  -3.58557   1.90540
H     2.98299  -2.02128  -0.42377
H     1.06554   1.29164   1.85880
H    -0.93845  -3.89834   1.76206
H    -1.69210  -3.26049   0.25363
H    -2.05931  -2.48813   1.84195
25

C     3.93021  -2.92313   1.27232
N     3.10438  -1.94853   0.58153
C     2.42116  -1.01767   1.25238
O     2.45944  -0.84058   2.47041
C     1.50273  -0.15563   0.42963
N     1.21434   1.10905   0.86760
C     0.50913   1.68159  -0.14782
C    -0.19415   2.90167  -0.06912
N    -0.81092   3.88760  -0.03094
C     0.89715   1.00143  -1.38207
O     0.69217   1.22769  -2.54685
O     1.66251  -0.08337  -0.93967
C    -1.11721  -0.14515  -0.05944
Br   -2.64872   0.47180  -0.83655
C    -0.32810  -0.97033   0.49186
O    -0.13782  -2.13844   1.09028
C    -1.29257  -2.98688   1.23710
H     4.66792  -2.42347   1.91608
H     4.45730  -3.53227   0.52872
H     3.31477  -3.58524   1.90531
H     2.98189  -2.02173  -0.42371
H     1.06269   1.29115   1.85876
H    -0.93954  -3.89662   1.76111
H    -1.69287  -3.25891   0.25267
H    -2.05993  -2.48620   1.84088
25

C     3.93057  -2.92193   1.27187
N     3.10368  -1.94749   0.58116
C     2.41699  -1.01953   1.25207
O     2.45925  -0.84005   2.46945
C     1.47673  -0.16992   0.43227
N     1.21759   1.11241   0.86868
C     0.49846   1.67229  -0.14446
C    -0.19652   2.89944  -0.06954
N    -0.80997   3.88705  -0.03154
C     0.89686   0.99643  -1.38227
O     0.69323   1.22902  -2.54551
O     1.66275  -0.08456  -0.94186
C    -1.10412  -0.13150  -0.06029
Br   -2.64706   0.46745  -0.83394
C    -0.30260  -0.95744   0.49115
O    -0.13867  -2.13565   1.08754
C    -1.29463  -2.98042   1.23341
H     4.66807  -2.42312   1.91586
H     4.45737  -3.53191   0.52855
H     3.31493  -3.58491   1.90522
H     2.98080  -2.02217  -0.42364
H     1.05984   1.29066   1.85872
H    -0.94063  -3.89490   1.76017
H    -1.69363  -3.25732   0.25170
H    -2.06055  -2.48427   1.83981
25

C     3.93093  -2.92073   1.27142
N     3.10297  -1.94644   0.58080
C     2.41282  -1.02139   1.25177
O     2.45906  -0.83951   2.46849
C     1.45073  -0.18421   0.43492
N     1.22084   1.11576   0.86975
C     0.48780   1.66298  -0.14111
C    -0.19889   2.89721  -0.06995
N    -0.80902   3.88651  -0.03214
C     0.89656   0.99143  -1.38248
O     0.69428   1.23035  -2.54418
O     1.66299  -0.08575  -0.94404
C    -1.09103  -0.11784  -0.06115
Br   -2.64540   0.46309  -0.83132
C    -0.27709  -0.94456   0.49043
O    -0.13953  -2.13286   1.08481
C    -1.29669  -2.97397   1.22972
H     4.66822  -2.42277   1.91565
H     4.45745  -3.53155   0.52839
H     3.31508  -3.58458   1.90513
H     2.97971  -2.02262  -0.42357
H     1.05698   1.29017   1.85868
H    -0.94172  -3.89318   1.75923
H    -1.69439  -3.25573   0.25074
H    -2.06117  -2.48234   1.83875
25

C     3.93129  -2.91952   1.27098
N     3.10226  -1.94540   0.58043
C     2.40866  -1.02325   1.25146
O     2.45887  -0.83898   2.46753
C     1.42474  -0.19850   0.43756
N     1.22409   1.11912   0.87083
C     0.47714   1.65368  -0.13776
C    -0.20125   2.89498  -0.07037
N    -0.80807   3.88596  -0.03274
C     0.89626   0.98643  -1.38268
O     0.69533   1.23167  -2.54284
O     1.66323  -0.08693  -0.94623
C    -1.07794  -0.10418  -0.06200
Br   -2.64374   0.45874  -0.82870
C    -0.25159  -0.93167   0.48971
O    -0.14039  -2.13007   1.08208
C    -1.29875  -2.96751   1.22603
H     4.66837  -2.42242   1.91543
H     4.45752  -3.53119   0.52822
H     3.31524  -3.58425   1.90504
H     2.97862  -2.02306  -0.42351
H     1.05413   1.28968   1.85864
H    -0.94281  -3.89146   1.75828
H    -1.69516  -3.25414   0.24977
H    -2.06178  -2.48041   1.83768
25

C     3.93165  -2.91832   1.27053
N     3.10155  -1.94436   0.58006
C     2.40449  -1.02511   1.25116
O     2.45868  -0.83844   2.46656
C     1.39874  -0.21279   0.44021
N     1.22734   1.12247   0.87191
C     0.46648   1.64438  -0.13440
C    -0.20362   2.89275  -0.07078
N    -0.80712   3.88541  -0.03334
C     0.89596   0.98143  -1.38289
O     0.69639   1.23300  -2.54150
O     1.66347  -0.08812  -0.94841
C    -1.06484  -0.09053  -0.06285
Br   -2.64207   0.45438  -0.82608
C    -0.22609  -0.91878   0.48899
O    -0.14125  -2.12728   1.07934
C    -1.30081  -2.96105   1.22234
H     4.66853  -2.42207   1.91521
H     4.45760  -3.53083   0.52806
H     3.31539  -3.58392   1.90495
H     2.97752  -2.02351  -0.42344
H     1.05128   1.28919   1.85861
H    -0.94390  -3.88973   1.75734
H    -1.69592  -3.25256   0.24881
H    -2.06240  -2.47849   1.83661
25

C     3.93201  -2.91712   1.27008
N     3.10085  -1.94332   0.57970
C     2.40032  -1.02697   1.25085
O     2.45849  -0.83791   2.46560
C     1.37274  -0.22708   0.44285
N     1.23059   1.12583   0.87299
C     0.45581   1.63507  -0.13105
C    -0.20599   2.89053  -0.07120
N    -0.80617   3.88487  -0.03394
C     0.89566   0.97643  -1.38309
O     0.69744   1.23433  -2.54016
O     1.66371  -0.08931  -0.95060
C    -1.05175  -0.07687  -0.06371
Br   -2.64041   0.45003  -0.82347
C    -0.20058  -0.90589   0.48828
O    -0.14211  -2.12449   1.07661
C    -1.30287  -2.95460   1.21865
H     4.66868  -2.42171   1.91500
H     4.45767  -3.53047   0.52789
H     3.31555  -3.58359   1.90486
H     2.97643  -2.02395  -0.42337
H     1.04842   1.28870   1.85857
H    -0.94499  -3.88801   1.75639
H    -1.69668  -3.25097   0.24785
H    -2.06302  -2.47656   1.83554
25

C     3.93237  -2.91592   1.26964
N     3.10014  -1.94227   0.57933
C     2.39616  -1.02883   1.25055
O     2.45830  -0.83737   2.46464
C     1.34674  -0.24137   0.44549
N     1.23385   1.12919   0.87406
C     0.44515   1.62577  -0.12770
C    -0.20836   2.88830  -0.07161
N    -0.80522   3.88432  -0.03455
C     0.89537   0.97143  -1.38329
O     0.69849   1.23566  -2.53882
O     1.66395  -0.09049  -0.95278
C    -1.03866  -0.06321  -0.06456
Br   -2.63875   0.44567  -0.82085
C    -0.17508  -0.89300   0.48756
O    -0.14297  -2.12170   1.07388
C    -1.30493  -2.94814   1.21496
H     4.66883  -2.42136   1.91478
H     4.45774  -3.53011   0.52773
H     3.31571  -3.58326   1.90477
H     2.97534  -2.02440  -0.42331
H     1.04557   1.28821   1.85853
H    -0.94609  -3.88629   1.75545
H    -1.69745  -3.24938   0.24688
H    -2.06364  -2.47463   1.83447
25

C     3.93273  -2.91471   1.26919
N     3.09943  -1.94123   0.57896
C     2.39199  -1.03069   1.25025
O     2.45811  -0.83683   2.46367
C     1.32074  -0.25566   0.44814
N     1.23710   1.13254   0.87514
C     0.43449   1.61647  -0.12434
C    -0.21072   2.88607  -0.07203
N    -0.80426   3.88377  -0.03515
C     0.89507   0.96644  -1.38350
O     0.69955   1.23699  -2.53748
O     1.66419  -0.09168  -0.95497
C    -1.02556  -0.04955  -0.06542
Br   -2.63708   0.44132  -0.81823
C    -0.14958  -0.88011   0.48684
O    -0.14383  -2.11891   1.07114
C    -1.30699  -2.94169   1.21127
H     4.66898  -2.42101   1.91457
H     4.45782  -3.52975   0.52756
H     3.31586  -3.58293   1.90468
H     2.97424  -2.02484  -0.42324
H     1.04271   1.28772   1.85849
H    -0.94718  -3.88457   1.75451
H    -1.69821  -3.24780   0.24592
H    -2.06426  -2.47270   1.83340
