14

C -2.641107915 -0.063905190 2.056876614
C -0.577141142 -1.539834432 -1.550645253
O -0.216849569 0.668411966 -2.667035335
C 2.049730445 1.741579968 -1.493089996
C 2.382921116 -0.071368965 0.701256464
O 1.354727897 -2.351198227 -0.323362583
H -3.129860462 -1.896690956 2.865479255
H -4.090014848 0.490085976 0.699137628
H -2.728304338 1.336231900 3.579293214
H -1.966658009 -2.822111287 -2.319589628
H 3.525213504 1.778501909 -2.949790954
H 1.622288587 3.667450790 -0.895625681
H -0.120387535 0.266935153 1.859780598
H 4.264449892 -0.398063722 1.441355494

