16

C -4.236942264 -0.356602034 -0.198571949
C -1.423528082 -0.923194631 -0.356605493
C 0.250052113 1.494847461 -0.496088049
C 2.913305105 0.967191329 0.095150262
O 4.170787185 -0.248712109 -1.840389457
C -0.423168658 -2.466022370 1.814182225
N 1.685066423 -2.022181640 2.627978230
H -4.848430010 0.766695923 -1.817441304
H -4.676598045 0.699972811 1.519511731
H -5.330699966 -2.100594842 -0.169190884
H -1.056655650 -2.091033055 -2.028095689
H 0.075855837 2.255563666 -2.409980822
H -0.480473280 2.897556808 0.830229006
H 3.283259774 -1.107304978 3.111499165
H 3.990070484 2.480390374 0.995915317
H 5.945578787 -0.307588189 -1.491830059

