16

C -2.751966808 2.042385609 0.100533808
C -2.540077033 -0.789559114 0.583795284
C 0.136061642 -1.664156074 1.222106256
C 1.966269443 -1.304464319 -0.922566637
C 3.684105683 0.848512730 -1.070796849
O 4.570224738 -1.574739015 -0.350192991
H -1.626619972 2.622435039 -1.528713072
H -2.091647292 3.122764994 1.732584456
H -4.706583784 2.589016461 -0.265259231
H -3.220650653 -1.827107045 -1.072696780
H -3.794477008 -1.316238257 2.138157760
H 0.109819147 -3.671707927 1.716668918
H 0.849619770 -0.655442625 2.880636219
H 1.416209040 -2.194019104 -2.698271639
H 4.344170937 1.520282211 -2.895304953
H 3.655542170 2.252036417 0.429319452

