11

C -4.972343075 0.847289340 -1.240073054
C -2.110078357 0.957959450 -0.951933340
C -1.278131155 1.188671823 1.794381996
H -2.052363117 2.896497956 2.660547206
H -1.933446261 -0.423435714 2.907087623
H 0.776268368 1.274697429 1.962450439
H -1.370621892 2.559125794 -2.031109348
H -1.267596953 -0.735202862 -1.787636770
H -5.757844097 -0.777817698 -0.235948369
H -5.531119159 0.691176646 -3.219844836
H -5.860574995 2.544204724 -0.466960566

