18

C -4.841080260 0.775459263 -0.824388864
C -1.987832315 0.597037162 -1.197539344
C -0.514554188 0.543410419 1.266855727
C 2.840261521 -2.586126031 1.027810228
O 4.652715592 -0.961443538 1.251570299
C 4.416749308 1.191318630 -0.148750056
H -5.548950993 -0.840496928 0.249289269
H -5.842436704 0.820264065 -2.629128242
H -5.345511393 2.483710150 0.220012649
H -1.346205856 2.191062098 -2.352053101
H -1.567551026 -1.099507912 -2.310555226
H -0.850411055 2.273638160 2.355703674
H -1.166582229 -0.992837709 2.469195220
H 2.819508719 -4.058284325 2.447866600
H 2.015166201 -2.927397303 -0.818942541
H 5.909567240 2.517340000 0.311795797
H 1.799823614 1.282831944 0.670205732
H 4.149282801 0.855619159 -2.166625520

