12

C 2.359381931 0.324410531 -1.103932365
H 2.018568162 1.034876897 -2.995806900
H 4.271632873 -0.344464475 -0.792928288
C 1.115801546 1.580768111 1.153643349
H 2.218924239 1.564223521 2.883064290
C -1.281209841 3.117176016 1.126163273
H -1.556632850 4.267845711 -0.570335615
H -1.492269005 4.298330867 2.795423007
O -3.319098487 1.236508275 1.167321206
C -2.284376207 -0.847486174 0.086975930
H -3.632987136 -2.164274399 -0.706608037
C 0.232683319 -0.930723583 0.178679123

