10

C -1.100926151 3.403996946 -0.371527696
C -2.028052981 0.782620720 -0.257030815
C -2.811456898 -1.162251222 0.971870178
H -3.281306818 -2.066454956 2.730360605
C -2.673926524 -1.476475902 -1.845000295
H -4.408181800 -1.476114927 -2.958723198
H -1.161468460 -2.603289714 -2.676152243
H 0.766525375 3.460482996 -1.249597028
H -0.981404848 4.246532435 1.504420775
H -2.353798320 4.555174940 -1.540364576

