12

C 2.900532692 -1.917109258 -1.515363556
C 0.710965235 -0.910760101 -0.882858673
C -1.300378542 -1.481095281 1.116079714
H -2.032989002 -3.400798282 0.945756997
H -0.836600785 -1.068431328 3.080154939
C -2.942473519 0.512839583 -0.195692762
H -4.976954006 0.604020739 -0.371235034
O -1.585418084 2.811911113 -0.112536725
C -0.956836273 1.050470747 -2.063300852
H -1.060504758 1.707781819 -3.995777967
H 3.912947680 -1.276438490 -3.176058767
H 3.750347878 -3.417030293 -0.410777667

