14

C 2.720504436 -0.948628795 -0.849656903
C 0.283038379 -0.407941660 -0.017887089
C -1.710799145 -1.934627113 1.291429328
C -2.857694906 -0.112572818 -0.478881714
O -3.046771586 2.245426892 0.614669591
C -0.373226824 2.272745151 0.072587536
H 3.463831704 -0.026507623 -2.518402139
H 3.560058731 -2.759979549 -0.398625915
H 3.443101068 1.628060019 0.922205303
H -1.705418131 -3.898111478 0.708355485
H -2.106457321 -1.610534661 3.280300161
H -3.694783845 -0.449106283 -2.312590139
H 2.304788556 2.880831295 1.386431549
H 0.008990977 3.406779039 -1.607245857

