12

C 2.234426362 -0.505124908 -0.929952972
C 2.279772437 1.737606668 0.843440044
C -4.300316440 0.075532164 -0.891346170
O -2.403630681 -1.410202130 -1.256965165
C -0.270171763 -1.166720500 0.433694716
C 0.043356402 1.250170843 1.890157719
H 3.754972170 -1.887445414 -0.750130886
H 1.954001587 -0.047974874 -2.920957381
H 3.685725348 3.189146330 1.163434228
H -5.637344236 -0.510542753 -2.408123562
H -0.227351930 -2.913955719 1.526676911
H -1.104311898 2.150967439 3.314712206

