10

O -0.729065428 4.280391319 -0.664068525
C -0.569426581 2.135056776 0.233341190
C -1.849954155 -0.606023584 -0.463151729
C 0.380071223 -1.991316384 -0.725416481
O 2.269020236 -0.576061126 -2.109027122
C 1.800343421 0.420855274 0.218380398
H -3.610368494 -1.328699357 0.305024757
H -1.534721740 1.723253026 2.160891354
H 0.878298499 -3.908011035 -0.227814667
H 3.170532168 0.135486125 1.727827996

