14

C -3.840231681 -1.712795773 -0.198018335
C -1.038202399 -1.861177824 0.306898439
C 0.432925125 0.562675459 0.078851638
N -0.950121187 2.817415904 -0.304865604
C 2.908120774 0.445402816 0.039870613
C 5.348359759 0.292956777 -0.116536802
O -0.018150045 -3.817618065 0.872487837
H -4.221084665 -0.697071609 -1.949636414
H -4.605905413 -3.618153296 -0.270291137
H -4.779307287 -0.677669054 1.325098711
H 0.187835526 4.335981015 -0.480009220
H -2.244298499 3.143343186 1.059821471
H 6.289745196 0.095627039 -1.927949218
H 6.522158757 0.331595156 1.564090938

