13

C 4.251406549 0.222779076 -0.381251376
O 3.465080340 -2.305584150 -0.677008878
C -0.756531029 -0.824458671 -1.224636750
C 0.950787108 -2.612677420 -1.111780171
N -5.275461532 0.145939070 1.714502781
C -3.901558112 1.651406206 0.490369737
N -2.354058781 0.830784208 -1.512733095
H 3.827431337 1.335147840 -2.074473763
H 6.283192003 0.181240685 -0.075023242
H 3.325147840 1.096207316 1.253246013
H 0.375697660 -4.559014070 -1.342373567
H -6.343371352 1.099112732 2.994330042
H -3.855674333 3.702524484 0.721414797

