12

N 3.087104086 0.222685912 -0.684300122
C 0.932857330 0.373987666 0.865413874
O 1.677955762 0.759976907 3.326367999
C -1.478159478 1.419989173 0.002656105
C -2.138017221 -0.605683226 -1.772385905
N -1.316501099 -1.320640941 0.765104017
H 4.160922286 -1.303001898 -0.286646301
H 2.716303405 0.355246402 -2.543926273
H -2.706566251 2.757023810 0.938403034
H -0.926664395 -1.032171660 -3.376056949
H -4.127471809 -0.965686956 -2.099127697
H 0.355938476 0.105945813 4.389039347

