12

N 3.210591981 0.404906533 -0.724509261
C 1.303643800 0.502290508 0.856360706
O 1.801422662 -0.125871293 3.195918050
C -1.314071006 1.100704240 0.167096085
C -2.543492524 -0.807893540 -1.471888025
N -2.652689668 -1.013450105 1.221824063
H 4.876958525 -0.357258960 -0.206185580
H 2.953924125 0.976258424 -2.516196621
H -1.932184075 3.074892751 0.306478731
H -1.340891719 -2.066143019 -2.599642769
H -4.248672550 -0.231977733 -2.493285147
H 0.123161540 -0.688790584 3.788570915

