11

O 2.784939959 0.344590160 3.670752727
C 1.427674840 0.110036768 1.901273031
C 1.173868748 -1.914232414 -0.189566005
C -0.187334655 2.199622765 -1.844503769
N -1.041993076 -0.483516476 -1.127012837
C -0.833665662 1.498818002 0.851343275
H 2.671479706 -2.059957340 -1.587690102
H 0.653495545 -3.745428770 0.604607064
H -1.898031131 3.091389701 -2.607554259
H -2.706056290 -1.304090285 -1.559140347
H -2.455276273 2.118912506 1.941989033

