9

N -2.301218240 -1.429013617 -1.040760484
C -0.445267096 0.374969057 -0.328696354
C 1.859189360 -0.244790927 0.419255734
N 4.033511206 -0.870025599 0.762608218
C -1.070600261 3.001131619 -0.462082144
N -1.597292481 5.108245677 -0.521004957
H -3.475311204 -1.913095517 0.383071976
H -1.551718145 -2.981351176 -1.849487317
H 4.609569270 -1.121883440 2.577534920

