14

C -2.658480167 -0.240619508 1.110504738
C -0.350136355 1.321532930 0.085711325
C 2.126941291 0.874075566 1.361604308
C 4.018919893 -0.470994602 0.426331077
C -2.857492346 -1.256253418 -1.546903557
C -0.883715966 0.036505389 -2.411951486
H -4.255108088 0.885489814 1.775643850
H -2.154923788 -1.625673635 2.554374550
H -0.760907370 3.349884393 0.068053781
H 2.330227690 1.733289305 3.218822211
H 3.895323112 -1.364344656 -1.414386947
H 5.760370056 -0.730410025 1.469757151
H -4.171849608 -2.562222564 -2.416458274
H 0.022895922 0.168659606 -4.242576841

