14

C -2.339766839 -0.368748854 1.361504719
C -0.838573735 1.969796126 0.488992222
C 1.872983567 1.251109489 0.548918423
C 2.559156540 -1.315383289 0.129735424
C -1.210369810 -1.575843900 -0.985938263
C -0.791937750 0.823310984 -2.090987078
H -4.360619453 -0.008257442 1.156894529
H -1.908412644 -1.173850852 3.209078386
H -1.332490998 3.903790332 0.957644489
H 3.247020515 2.632055767 1.227937441
H 2.826164164 -2.134954296 -1.713425940
H 3.959801833 -2.083554728 1.457009550
H -1.544049523 -3.409210833 -1.824473485
H -0.136982108 1.502661573 -3.899845208

