10

O 4.225507266 0.198187881 0.194364285
C 1.960698266 0.346353634 0.072454594
C 0.063879735 -1.816590851 0.304543462
N -2.317979185 -0.479192404 0.307453414
N -2.023540372 1.969488592 -0.296503452
C 0.336590836 2.564618623 -0.341004273
H 0.261287801 -3.078412555 -1.321246070
H 0.379023937 -2.893080047 2.033177521
H -3.923949118 -1.257942115 -0.337243869
H 0.944289323 4.481515948 -0.678190297

