10

O 4.192160177 -0.032561663 0.351464757
C 1.676792843 0.124403222 0.155947853
C -0.204697345 -1.677721662 0.889103764
N -2.443470398 -0.615413520 0.454840902
N -2.298798540 1.766228781 -0.454900599
C 0.105320427 2.275048009 -0.593423401
H 2.318607878 -0.900775752 -1.676153549
H 0.017005834 -3.584282790 1.572634956
H -4.153464255 -1.430569182 0.580666332
H 0.764351755 4.076472258 -1.286275403

