14

N 0.416872298 1.770587510 -3.088538256
C -0.682087158 3.298435579 -1.531031823
C -0.541900622 1.970415918 1.087417595
C 1.833934682 0.317814555 1.032612344
C 1.190058599 -0.603935852 -2.059814704
C -0.566840472 -1.971919384 -0.621544018
C -2.343737229 -0.298492314 0.849568445
H -0.801279668 3.172052188 2.729742344
H 3.680025519 1.128796210 0.603045905
H 2.012755024 -0.975957202 2.631480856
H 2.731698116 -1.592780212 -2.981089959
H -0.544996013 -4.019220341 -0.481185404
H -4.120537289 0.038215516 -0.148421962
H -2.761392724 -1.147211742 2.681186511

