15

C -0.983554921 -2.818531201 1.078921197
C -0.143775334 -0.521404029 -0.420389211
O -1.167863897 -0.733403692 -2.864683850
C -1.107792981 1.921084108 0.803014815
O -0.533048748 4.050954020 -0.703099401
C 4.560830739 -1.325738874 0.757634629
C 2.738186056 -0.407995385 -0.568515298
H -3.039196052 -2.838910726 1.224508759
H -0.167115870 -2.797177844 2.973301132
H -0.376012734 -4.534460310 0.119454653
H -1.136197341 0.926683254 -3.614015798
H -0.350178175 2.107031873 2.717029627
H -3.166132565 1.810232679 0.905074331
H 1.138780578 4.624496141 -0.300169559
H 3.633203018 0.657963368 -2.111131181

