15

C -0.983430237 -2.870185051 1.247206676
C -0.136367909 -0.743507566 -0.468049521
O -1.191029143 -0.968547510 -2.811987382
C -0.933845921 1.828591481 0.656194150
O -0.752847764 3.813249604 -1.111457066
C 3.176748328 -1.970161561 -1.069394011
C 3.454866370 0.255680757 -0.352354214
H -2.995362040 -2.625021545 1.656120071
H 0.077100694 -2.852064221 3.010109803
H -0.699520090 -4.676218815 0.315858840
H -1.226937832 0.690923442 -3.572033245
H 0.054739149 2.235355219 2.422781430
H -2.947977195 1.651939354 1.070119628
H 0.983064934 4.284829776 -1.345513195
H 4.020930392 2.065963835 0.349332901

