11

O -2.977818730 3.681183637 0.283254809
C -1.346240551 2.088169402 0.269555259
C -1.811671459 -0.734021046 -0.356010229
C 0.720405985 -1.889832535 -0.113294694
C 2.330170772 0.023348039 0.669062977
N 1.181544872 2.458873461 0.862925275
H -2.780882698 -1.020753991 -2.152845789
H -3.062359275 -1.480688007 1.118651215
H 1.255227316 -3.826876400 -0.473167353
H 4.281658607 -0.201471318 1.242653588
H 2.186634583 0.843986156 -1.394390470

