8

C 1.718015499 3.504622179 0.865675374
H 0.907237954 5.379715965 0.934239003
C 2.334033769 1.619398988 2.410774696
H 2.253873722 1.237697271 4.404660654
C 3.202042596 0.232625097 0.084512804
H 5.225043167 -0.102267726 -0.120510745
H 2.115341679 -1.420663144 -0.492284729
O 2.442788055 2.441565478 -1.393672658

