14

C -2.628861204 -2.147834953 -1.833291381
C -2.972531106 0.352886965 -0.869860910
C -0.163198335 1.133313695 -0.124565474
C 1.604242478 0.491603672 1.840673313
C 3.518025364 0.188917735 -0.185487787
O 1.735140594 1.219332138 -1.971161793
H -2.127379254 -2.435537516 -3.792195901
H -2.309602010 -3.701775756 -0.541853776
H -4.060167059 0.520121793 0.872955752
H -3.625178996 1.746178068 -2.236166308
H 1.409829344 0.080354065 3.823990354
H 0.211729224 2.894590807 1.249881885
H 5.303070337 1.216957886 -0.130005145
H 3.841020055 -1.824902377 -0.655306527

