15

C -3.287589741 1.156290648 0.125075851
C -1.297995862 -0.618595913 -0.273598706
C 2.007841510 1.385061988 -1.262238086
C 0.610654226 3.543785411 -1.535218474
N -1.077586465 4.972957122 -1.379111449
N 1.096579611 -0.100044633 0.834329013
C 2.630202532 -2.280341453 1.437569144
H -3.256590504 2.296296241 1.816927279
H -4.977373507 1.062997987 -1.021569351
H -2.943885220 -1.367889594 1.181106437
H -1.386765595 -1.816500295 -1.955611124
H 3.002136009 0.491941290 -2.814238462
H 2.946397838 -3.522993756 -0.201949456
H 1.723600811 -3.375630267 2.931057759
H 4.458890370 -1.616424333 2.111634093

