11

C -2.371236316 -1.250379223 2.901776736
C -2.337933748 0.051599860 0.752647755
C -3.665602807 -0.689517146 -1.627993916
H -2.316443499 -0.865824889 -3.177915083
H -4.666583026 -2.474324674 -1.403717573
H -5.011545046 0.771394462 -2.183181524
C -0.862127829 2.433157104 0.712428563
O -0.670691940 3.782071050 -1.107213988
H 0.087767895 2.914988001 2.518652811
H -1.357858077 -0.578195685 4.552429111
H -3.397481397 -3.012161233 3.091562347

