17

C 4.368355198 -1.298774731 -0.770330433
O 2.836143203 0.677006327 0.252678625
C 0.326145621 -0.143509222 1.844538616
C -1.573976643 0.727801107 0.067429869
C -2.987376322 -1.134765042 -1.575320125
C -2.773960934 3.113406315 0.619079664
O -4.631896403 3.963327949 -0.425789046
H 5.353257664 -2.235676680 0.774734251
H 5.742440183 -0.443757526 -2.039048881
H 3.211167346 -2.662913993 -1.802955400
H 0.577930046 0.932011262 3.576084724
H 0.543520061 -2.169081163 2.128372286
H 1.158978897 1.339422306 -0.942387993
H -3.735990003 -0.180722560 -3.239491997
H -1.776873665 -2.679364362 -2.220481713
H -4.603674270 -1.970599373 -0.591414074
H -1.813469968 4.242502159 2.120970795

