11

C -2.565031509 -0.276369328 -1.724980784
C -0.562947107 1.163021569 -0.253630385
C 3.736026116 -1.093480271 2.989265330
O 4.891491690 -1.874262307 4.678123073
C 3.511038234 -0.496055791 0.456392783
N 1.952068152 0.388205247 -1.037168757
H -2.445822143 -2.298299142 -1.339637470
H -2.328359961 0.012975049 -3.750790660
H -4.442705036 0.376306114 -1.179860125
H -0.713510318 3.182201359 -0.663363393
H -0.772533589 0.882539895 1.794547385

