11

C -3.090256584 0.170591700 -1.451110241
C -0.482862101 0.058405085 -0.458769548
C 2.971145785 -0.367728043 2.934852877
O 3.465391635 -0.643206194 5.053572404
C 4.299664050 -0.033871602 0.503749471
N 3.700189728 0.248968582 -1.637089811
H -4.411171554 -0.175390716 0.112515786
H -3.437090813 -1.296923839 -2.855569096
H -3.545760969 2.019200729 -2.235278156
H 0.346061615 1.752739727 0.267715478
H 0.372403263 -1.757822428 -0.218422558

