12

C -0.103954344 -3.752450803 -1.352402646
C -1.504910101 0.831063755 1.017002677
C -0.041617854 -1.093748896 -0.387238804
C 1.947316397 -1.797556320 -1.584961923
C -0.160759795 3.222696830 1.328380976
C 0.951139655 5.175252172 1.577388544
H -1.263002934 -4.215620560 -2.991789966
H 0.127453807 -5.320002339 -0.035458349
H -3.295618186 1.159243231 0.034915203
H -2.014201704 0.070065281 2.871488187
H 3.803986696 -1.394086640 -2.303333713
H 1.938697394 6.913612575 1.795218616

