10

O 5.530321582 0.071951417 0.642322010
C 3.581288500 -0.104659647 -0.476757095
C 1.067425729 0.843987630 0.624582981
N -0.957968748 0.492921718 -1.058762393
C -2.768091558 -1.616847423 -0.599842611
C -3.489272860 0.531538026 0.181245239
O 0.912369467 1.912726643 2.614801566
H 3.440150128 -0.989839111 -2.366739561
H -2.884480375 -3.593224936 -1.041903012
H -4.749149733 1.916970665 0.954388095

