18

C -3.287459161 -1.671564802 -1.581423562
C -2.461534932 0.609979820 -0.039228201
C 0.278991927 0.580693506 0.804221669
C 1.282585126 2.996031211 1.937034870
N 1.414538390 -1.529654118 1.528742136
C 4.085814233 -2.161078513 -0.524774847
O 5.762901249 -3.369092571 0.122206132
H -2.071037957 -1.933177240 -3.228354424
H -3.257832130 -3.417438889 -0.480347688
H -5.219751461 -1.423833140 -2.252982017
H -2.791048763 2.338185554 -1.118755604
H -3.634034951 0.775819142 1.661224542
H 1.591971617 1.019920206 -1.918464342
H 0.760177237 4.641016807 0.810796253
H 0.514230516 3.236022536 3.840297386
H 3.334777526 2.909129623 2.099017734
H 0.364031833 -3.087283648 1.120394865
H 2.858980184 -0.003101740 -2.202429613

