9

C 0.095841126 1.929040686 0.816434837
C 1.451176514 0.413727435 -0.706431026
N 1.981256238 -2.192735280 1.221167100
N -0.079386412 -3.162062680 1.278971441
N -2.108484789 -2.411304349 0.370265699
C -1.476413201 0.191731518 -0.512680298
H 0.093461564 3.696970164 1.828588911
H 2.981791577 0.696505069 -2.028315502
H -2.941181494 0.867206506 -1.772994983

