12

O 1.092201210 -0.071388732 3.156771769
C 1.256223428 0.216050536 0.898839520
C 3.674783758 -0.016227475 -0.403079678
C 5.709812531 -0.183785144 -1.596658138
C -0.932403777 0.810716431 -0.762471440
C -3.179141458 -0.863350822 -0.447086524
N -3.218457513 1.707789662 0.461727537
H 5.983701536 -0.562777693 0.646876080
H -0.498762011 1.606671588 -2.598647753
H -3.009864346 -2.385591734 0.914296818
H -4.338977648 -1.246081797 -2.088850119
H -2.924929736 1.737903562 2.360066409

