15

C -1.804410810 2.302967389 -0.417422983
C -0.628496132 -0.313672616 -0.683613528
C 2.216486625 -0.219677903 -1.373173041
C 3.753739294 1.074014958 0.514216645
N 4.899232821 2.071480134 2.062217018
C -1.192580400 -2.153855998 1.581708287
N -1.996750008 -2.269397539 -1.613121734
H -0.796642885 3.469645352 0.952990207
H -1.736962195 3.261996954 -2.243131820
H -3.778233848 2.127991109 0.138458740
H 2.418739382 0.758343919 -3.179295981
H 2.908184420 -2.144155751 -1.625731706
H -2.399271650 -1.201445918 2.936691316
H 0.565247149 -2.937560855 2.293415448
H -2.309414171 -3.810971464 0.831206959

