11

N 3.843303827 -0.196159014 0.212528899
C 1.512481912 0.193204333 1.010657676
C -1.486157064 2.911894273 -1.140824033
N -3.064290877 1.026216641 -0.530994446
C -2.385633856 -1.327564955 0.345257763
N -0.085459406 -1.753903968 0.967555687
H 4.394748020 -1.818620115 -0.630606993
H 5.146370996 1.159310751 0.454639079
H 0.210962184 2.064505004 -1.984701133
H -4.888015067 1.500487008 -0.206189567
H -3.873436096 -2.689849224 0.700325812

