10

N -3.597855465 -0.162084928 -0.438796730
C -1.037665963 -0.332027015 -0.111789905
N 0.178634469 -2.450029278 -0.456548704
O 2.683988767 -2.009336207 -0.096004115
C 2.920754972 0.562108522 0.416870748
C 0.541832195 1.794780653 0.654009230
H -4.410044900 1.332679517 0.401979329
H -4.584957288 -1.784157349 -0.378536558
H 4.662701245 1.036156393 1.382406904
H 2.844215527 1.689463816 -1.445649235

