22

C     3.40267   1.30789   0.07196
O     2.00220   1.01889   0.15220
C     1.67451  -0.26632   0.28370
O     2.45051  -1.20443   0.31312
N     0.30942  -0.31667   0.38787
N    -0.37300  -1.33737   0.31439
N    -1.31547  -1.99751   0.20965
C    -2.70633   0.25357  -0.29425
C    -3.37691   0.13835   1.05908
C    -1.72146   1.06040  -0.58756
C    -1.02532   1.18710  -1.92794
H     3.89644   0.96175   0.98813
H     3.83544   0.80269  -0.80009
H     3.49053   2.39188  -0.02784
H    -3.02586  -0.46718  -1.07491
H    -2.73471   0.52605   1.87004
H    -3.70272  -0.87641   1.33870
H    -4.24794   0.76858   0.96288
H    -1.29123   1.71100   0.22412
H     0.05279   1.45733  -1.87357
H    -1.11993   0.27502  -2.52907
H    -1.54356   2.00154  -2.42631
22

C     3.40133   1.30745   0.07205
O     2.00003   1.02191   0.15119
C     1.66860  -0.26309   0.28160
O     2.44431  -1.20109   0.31416
N     0.30160  -0.31284   0.37876
N    -0.37218  -1.34414   0.31590
N    -1.33054  -1.97358   0.20611
C    -2.69015   0.23342  -0.28774
C    -3.37332   0.13669   1.05772
C    -1.70245   1.04958  -0.58083
C    -1.02338   1.18604  -1.92549
H     3.89579   0.96141   0.98823
H     3.83502   0.80234  -0.79997
H     3.49081   2.39170  -0.02783
H    -3.02461  -0.46593  -1.07535
H    -2.73444   0.52470   1.87059
H    -3.70537  -0.87539   1.33847
H    -4.24424   0.77077   0.95883
H    -1.28996   1.71037   0.22489
H     0.05227   1.46062  -1.87547
H    -1.11851   0.27494  -2.52875
H    -1.54746   1.99984  -2.42264
22

C     3.40000   1.30702   0.07213
O     1.99785   1.02492   0.15018
C     1.66270  -0.25987   0.27951
O     2.43810  -1.19776   0.31520
N     0.29379  -0.30900   0.36964
N    -0.37135  -1.35091   0.31741
N    -1.34562  -1.94966   0.20256
C    -2.67396   0.21327  -0.28123
C    -3.36973   0.13503   1.05636
C    -1.68344   1.03876  -0.57409
C    -1.02143   1.18497  -1.92305
H     3.89514   0.96107   0.98833
H     3.83461   0.80199  -0.79984
H     3.49108   2.39152  -0.02781
H    -3.02335  -0.46467  -1.07580
H    -2.73418   0.52335   1.87115
H    -3.70802  -0.87436   1.33825
H    -4.24055   0.77295   0.95477
H    -1.28868   1.70975   0.22566
H     0.05174   1.46392  -1.87738
H    -1.11708   0.27486  -2.52844
H    -1.55136   1.99815  -2.41897
22

C     3.39867   1.30659   0.07222
O     1.99568   1.02794   0.14917
C     1.65680  -0.25665   0.27742
O     2.43189  -1.19442   0.31624
N     0.28597  -0.30517   0.36052
N    -0.37053  -1.35768   0.31893
N    -1.36069  -1.92574   0.19901
C    -2.65778   0.19312  -0.27472
C    -3.36615   0.13337   1.05499
C    -1.66443   1.02794  -0.56736
C    -1.01949   1.18390  -1.92061
H     3.89449   0.96074   0.98842
H     3.83419   0.80164  -0.79972
H     3.49136   2.39134  -0.02779
H    -3.02210  -0.46342  -1.07624
H    -2.73391   0.52200   1.87171
H    -3.71067  -0.87333   1.33802
H    -4.23685   0.77514   0.95072
H    -1.28741   1.70912   0.22644
H     0.05122   1.46722  -1.87928
H    -1.11566   0.27478  -2.52813
H    -1.55526   1.99645  -2.41530
22

C     3.39734   1.30615   0.07230
O     1.99350   1.03096   0.14816
C     1.65089  -0.25342   0.27532
O     2.42568  -1.19109   0.31728
N     0.27816  -0.30134   0.35141
N    -0.36971  -1.36445   0.32044
N    -1.37576  -1.90182   0.19547
C    -2.64159   0.17297  -0.26821
C    -3.36256   0.13171   1.05363
C    -1.64542   1.01712  -0.56063
C    -1.01755   1.18283  -1.91816
H     3.89384   0.96040   0.98852
H     3.83377   0.80129  -0.79959
H     3.49164   2.39116  -0.02778
H    -3.02085  -0.46216  -1.07668
H    -2.73365   0.52065   1.87227
H    -3.71331  -0.87230   1.33779
H    -4.23316   0.77732   0.94666
H    -1.28614   1.70850   0.22721
H     0.05069   1.47052  -1.88119
H    -1.11423   0.27470  -2.52782
H    -1.55916   1.99476  -2.41163
22

C     3.39600   1.30572   0.07239
O     1.99133   1.03398   0.14715
C     1.64499  -0.25020   0.27323
O     2.41947  -1.18775   0.31832
N     0.27034  -0.29750   0.34229
N    -0.36888  -1.37122   0.32195
N    -1.39084  -1.87790   0.19192
C    -2.62541   0.15282  -0.26170
C    -3.35897   0.13006   1.05227
C    -1.62640   1.00630  -0.55389
C    -1.01560   1.18177  -1.91572
H     3.89319   0.96006   0.98862
H     3.83335   0.80094  -0.79947
H     3.49192   2.39099  -0.02776
H    -3.01960  -0.46091  -1.07713
H    -2.73338   0.51930   1.87283
H    -3.71596  -0.87127   1.33757
H    -4.22946   0.77951   0.94260
H    -1.28487   1.70787   0.22799
H     0.05017   1.47382  -1.88309
H    -1.11281   0.27462  -2.52751
H    -1.56306   1.99306  -2.40796
22

C     3.39467   1.30529   0.07247
O     1.98915   1.03699   0.14615
C     1.63908  -0.24698   0.27114
O     2.41326  -1.18442   0.31937
N     0.26253  -0.29367   0.33318
N    -0.36806  -1.37799   0.32346
N    -1.40591  -1.85398   0.18838
C    -2.60922   0.13267  -0.25519
C    -3.35538   0.12840   1.05091
C    -1.60739   0.99548  -0.54716
C    -1.01366   1.18070  -1.91328
H     3.89254   0.95973   0.98871
H     3.83293   0.80059  -0.79934
H     3.49220   2.39081  -0.02774
H    -3.01834  -0.45965  -1.07757
H    -2.73312   0.51795   1.87338
H    -3.71861  -0.87025   1.33734
H    -4.22577   0.78170   0.93855
H    -1.28360   1.70724   0.22876
H     0.04965   1.47711  -1.88500
H    -1.11138   0.27454  -2.52720
H    -1.56696   1.99137  -2.40429
22

C     3.39334   1.30485   0.07256
O     1.98698   1.04001   0.14514
C     1.63318  -0.24376   0.26904
O     2.40705  -1.18108   0.32041
N     0.25471  -0.28984   0.32406
N    -0.36723  -1.38477   0.32497
N    -1.42098  -1.83006   0.18483
C    -2.59304   0.11252  -0.24868
C    -3.35179   0.12674   1.04955
C    -1.58838   0.98466  -0.54043
C    -1.01171   1.17963  -1.91083
H     3.89189   0.95939   0.98881
H     3.83252   0.80024  -0.79922
H     3.49247   2.39063  -0.02773
H    -3.01709  -0.45839  -1.07802
H    -2.73285   0.51660   1.87394
H    -3.72125  -0.86922   1.33711
H    -4.22207   0.78388   0.93449
H    -1.28232   1.70662   0.22954
H     0.04912   1.48041  -1.88690
H    -1.10996   0.27447  -2.52689
H    -1.57086   1.98967  -2.40062
22

C     3.39200   1.30442   0.07264
O     1.98480   1.04303   0.14413
C     1.62727  -0.24053   0.26695
O     2.40084  -1.17774   0.32145
N     0.24690  -0.28600   0.31495
N    -0.36641  -1.39154   0.32649
N    -1.43605  -1.80614   0.18129
C    -2.57685   0.09237  -0.24217
C    -3.34821   0.12508   1.04818
C    -1.56937   0.97384  -0.53370
C    -1.00977   1.17856  -1.90839
H     3.89124   0.95905   0.98890
H     3.83210   0.79989  -0.79909
H     3.49275   2.39045  -0.02771
H    -3.01584  -0.45714  -1.07846
H    -2.73258   0.51525   1.87450
H    -3.72390  -0.86819   1.33689
H    -4.21838   0.78607   0.93044
H    -1.28105   1.70599   0.23031
H     0.04860   1.48371  -1.88881
H    -1.10853   0.27439  -2.52658
H    -1.57476   1.98798  -2.39695
22

C     3.39067   1.30399   0.07272
O     1.98263   1.04605   0.14312
C     1.62137  -0.23731   0.26485
O     2.39463  -1.17441   0.32249
N     0.23908  -0.28217   0.30583
N    -0.36559  -1.39831   0.32800
N    -1.45113  -1.78222   0.17774
C    -2.56067   0.07222  -0.23566
C    -3.34462   0.12342   1.04682
C    -1.55036   0.96302  -0.52696
C    -1.00783   1.17750  -1.90595
H     3.89058   0.95872   0.98900
H     3.83168   0.79954  -0.79897
H     3.49303   2.39028  -0.02769
H    -3.01458  -0.45588  -1.07891
H    -2.73232   0.51390   1.87506
H    -3.72655  -0.86716   1.33666
H    -4.21468   0.78825   0.92638
H    -1.27978   1.70537   0.23108
H     0.04807   1.48701  -1.89071
H    -1.10711   0.27431  -2.52627
H    -1.57866   1.98628  -2.39328
22

C     3.38934   1.30355   0.07281
O     1.98045   1.04906   0.14211
C     1.61547  -0.23409   0.26276
O     2.38842  -1.17107   0.32353
N     0.23127  -0.27834   0.29671
N    -0.36476  -1.40508   0.32951
N    -1.46620  -1.75830   0.17419
C    -2.54448   0.05207  -0.22915
C    -3.34103   0.12176   1.04546
C    -1.53135   0.95221  -0.52023
C    -1.00588   1.17643  -1.90351
H     3.88993   0.95838   0.98910
H     3.83126   0.79918  -0.79884
H     3.49331   2.39010  -0.02768
H    -3.01333  -0.45463  -1.07935
H    -2.73205   0.51255   1.87562
H    -3.72920  -0.86614   1.33644
H    -4.21099   0.79044   0.92232
H    -1.27851   1.70474   0.23186
H     0.04755   1.49030  -1.89262
H    -1.10569   0.27423  -2.52596
H    -1.58256   1.98459  -2.38961
22

C     3.38801   1.30312   0.07289
O     1.97828   1.05208   0.14111
C     1.60956  -0.23086   0.26067
O     2.38221  -1.16774   0.32457
N     0.22345  -0.27450   0.28760
N    -0.36394  -1.41185   0.33102
N    -1.48127  -1.73438   0.17065
C    -2.52830   0.03192  -0.22264
C    -3.33744   0.12010   1.04410
C    -1.51234   0.94139  -0.51350
C    -1.00394   1.17536  -1.90106
H     3.88928   0.95805   0.98919
H     3.83084   0.79883  -0.79872
H     3.49359   2.38992  -0.02766
H    -3.01208  -0.45337  -1.07980
H    -2.73179   0.51120   1.87617
H    -3.73184  -0.86511   1.33621
H    -4.20729   0.79262   0.91827
H    -1.27724   1.70411   0.23263
H     0.04702   1.49360  -1.89452
H    -1.10426   0.27415  -2.52565
H    -1.58646   1.98289  -2.38593
22

C     3.38667   1.30269   0.07298
O     1.97610   1.05510   0.14010
C     1.60366  -0.22764   0.25857
O     2.37600  -1.16440   0.32561
N     0.21564  -0.27067   0.27848
N    -0.36311  -1.41862   0.33253
N    -1.49635  -1.71046   0.16710
C    -2.51211   0.01177  -0.21613
C    -3.33386   0.11844   1.04274
C    -1.49332   0.93057  -0.50676
C    -1.00200   1.17430  -1.89862
H     3.88863   0.95771   0.98929
H     3.83043   0.79848  -0.79860
H     3.49386   2.38974  -0.02764
H    -3.01082  -0.45212  -1.08024
H    -2.73152   0.50985   1.87673
H    -3.73449  -0.86408   1.33598
H    -4.20360   0.79481   0.91421
H    -1.27596   1.70349   0.23341
H     0.04650   1.49690  -1.89642
H    -1.10284   0.27407  -2.52534
H    -1.59036   1.98120  -2.38226
22

C     3.38534   1.30226   0.07306
O     1.97392   1.05812   0.13909
C     1.59775  -0.22442   0.25648
O     2.36979  -1.16107   0.32665
N     0.20782  -0.26684   0.26937
N    -0.36229  -1.42539   0.33405
N    -1.51142  -1.68654   0.16356
C    -2.49593  -0.00838  -0.20962
C    -3.33027   0.11678   1.04137
C    -1.47431   0.91975  -0.50003
C    -1.00005   1.17323  -1.89618
H     3.88798   0.95737   0.98938
H     3.83001   0.79813  -0.79847
H     3.49414   2.38957  -0.02763
H    -3.00957  -0.45086  -1.08069
H    -2.73126   0.50850   1.87729
H    -3.73714  -0.86305   1.33576
H    -4.19991   0.79700   0.91016
H    -1.27469   1.70286   0.23418
H     0.04598   1.50020  -1.89833
H    -1.10141   0.27399  -2.52503
H    -1.59426   1.97950  -2.37859
22

C     3.38401   1.30182   0.07315
O     1.97175   1.06114   0.13808
C     1.59185  -0.22120   0.25439
O     2.36358  -1.15773   0.32769
N     0.20001  -0.26300   0.26025
N    -0.36147  -1.43216   0.33556
N    -1.52649  -1.66262   0.16001
C    -2.47974  -0.02853  -0.20311
C    -3.32668   0.11512   1.04001
C    -1.45530   0.90893  -0.49330
C    -0.99811   1.17216  -1.89373
H     3.88733   0.95704   0.98948
H     3.82959   0.79778  -0.79835
H     3.49442   2.38939  -0.02761
H    -3.00832  -0.44961  -1.08113
H    -2.73099   0.50715   1.87785
H    -3.73978  -0.86202   1.33553
H    -4.19621   0.79918   0.90610
H    -1.27342   1.70224   0.23495
H     0.04545   1.50350  -1.90023
H    -1.09999   0.27391  -2.52472
H    -1.59816   1.97781  -2.37492
22

C     3.38267   1.30139   0.07323
O     1.96957   1.06415   0.13707
C     1.58594  -0.21797   0.25229
O     2.35737  -1.15439   0.32873
N     0.19219  -0.25917   0.25114
N    -0.36064  -1.43893   0.33707
N    -1.54156  -1.63870   0.15647
C    -2.46356  -0.04868  -0.19660
C    -3.32309   0.11347   1.03865
C    -1.43629   0.89811  -0.48657
C    -0.99616   1.17109  -1.89129
H     3.88668   0.95670   0.98958
H     3.82917   0.79743  -0.79822
H     3.49470   2.38921  -0.02759
H    -3.00706  -0.44835  -1.08157
H    -2.73073   0.50580   1.87841
H    -3.74243  -0.86100   1.33531
H    -4.19252   0.80137   0.90204
H    -1.27215   1.70161   0.23573
H     0.04493   1.50679  -1.90214
H    -1.09856   0.27383  -2.52441
H    -1.60206   1.97611  -2.37125
22

C     3.38134   1.30096   0.07331
O     1.96740   1.06717   0.13607
C     1.58004  -0.21475   0.25020
O     2.35116  -1.15106   0.32978
N     0.18438  -0.25534   0.24202
N    -0.35982  -1.44570   0.33858
N    -1.55664  -1.61478   0.15292
C    -2.44737  -0.06883  -0.19008
C    -3.31950   0.11181   1.03729
C    -1.41728   0.88729  -0.47983
C    -0.99422   1.17003  -1.88885
H     3.88603   0.95636   0.98967
H     3.82875   0.79708  -0.79810
H     3.49498   2.38903  -0.02758
H    -3.00581  -0.44710  -1.08202
H    -2.73046   0.50445   1.87896
H    -3.74508  -0.85997   1.33508
H    -4.18882   0.80355   0.89799
H    -1.27088   1.70099   0.23650
H     0.04440   1.51009  -1.90404
H    -1.09714   0.27375  -2.52410
H    -1.60596   1.97442  -2.36758
22

C     3.38001   1.30052   0.07340
O     1.96522   1.07019   0.13506
C     1.57414  -0.21153   0.24811
O     2.34495  -1.14772   0.33082
N     0.17656  -0.25150   0.23290
N    -0.35900  -1.45247   0.34010
N    -1.57171  -1.59086   0.14937
C    -2.43119  -0.08898  -0.18357
C    -3.31592   0.11015   1.03593
C    -1.39827   0.87647  -0.47310
C    -0.99228   1.16896  -1.88640
H     3.88538   0.95603   0.98977
H     3.82834   0.79673  -0.79797
H     3.49525   2.38886  -0.02756
H    -3.00456  -0.44584  -1.08246
H    -2.73019   0.50309   1.87952
H    -3.74773  -0.85894   1.33485
H    -4.18513   0.80574   0.89393
H    -1.26960   1.70036   0.23728
H     0.04388   1.51339  -1.90595
H    -1.09571   0.27368  -2.52379
H    -1.60986   1.97272  -2.36391
22

C     3.37868   1.30009   0.07348
O     1.96305   1.07321   0.13405
C     1.56823  -0.20830   0.24601
O     2.33874  -1.14439   0.33186
N     0.16875  -0.24767   0.22379
N    -0.35817  -1.45924   0.34161
N    -1.58678  -1.56693   0.14583
C    -2.41500  -0.10913  -0.17706
C    -3.31233   0.10849   1.03456
C    -1.37926   0.86565  -0.46637
C    -0.99033   1.16789  -1.88396
H     3.88473   0.95569   0.98986
H     3.82792   0.79638  -0.79785
H     3.49553   2.38868  -0.02754
H    -3.00331  -0.44459  -1.08291
H    -2.72993   0.50174   1.88008
H    -3.75037  -0.85791   1.33463
H    -4.18143   0.80793   0.88988
H    -1.26833   1.69973   0.23805
H     0.04335   1.51669  -1.90785
H    -1.09429   0.27360  -2.52348
H    -1.61376   1.97103  -2.36024
22

C     3.37734   1.29966   0.07357
O     1.96087   1.07622   0.13304
C     1.56233  -0.20508   0.24392
O     2.33253  -1.14105   0.33290
N     0.16093  -0.24383   0.21467
N    -0.35735  -1.46601   0.34312
N    -1.60186  -1.54301   0.14228
C    -2.39882  -0.12928  -0.17055
C    -3.30874   0.10683   1.03320
C    -1.36024   0.85483  -0.45963
C    -0.98839   1.16682  -1.88152
H     3.88408   0.95535   0.98996
H     3.82750   0.79603  -0.79772
H     3.49581   2.38850  -0.02753
H    -3.00205  -0.44333  -1.08335
H    -2.72966   0.50039   1.88064
H    -3.75302  -0.85689   1.33440
H    -4.17774   0.81011   0.88582
H    -1.26706   1.69911   0.23882
H     0.04283   1.51998  -1.90976
H    -1.09286   0.27352  -2.52316
H    -1.61766   1.96933  -2.35657
22

C     3.37601   1.29922   0.07365
O     1.95870   1.07924   0.13203
C     1.55642  -0.20186   0.24183
O     2.32632  -1.13772   0.33394
N     0.15312  -0.24000   0.20556
N    -0.35652  -1.47278   0.34463
N    -1.61693  -1.51909   0.13874
C    -2.38263  -0.14943  -0.16404
C    -3.30515   0.10517   1.03184
C    -1.34123   0.84401  -0.45290
C    -0.98644   1.16576  -1.87908
H     3.88343   0.95502   0.99006
H     3.82708   0.79568  -0.79760
H     3.49609   2.38832  -0.02751
H    -3.00080  -0.44208  -1.08380
H    -2.72940   0.49904   1.88120
H    -3.75567  -0.85586   1.33418
H    -4.17404   0.81230   0.88177
H    -1.26579   1.69848   0.23960
H     0.04231   1.52328  -1.91166
H    -1.09144   0.27344  -2.52285
H    -1.62156   1.96764  -2.35290
22

C     3.37734   1.29966   0.07357
O     1.96087   1.07622   0.13304
C     1.56233  -0.20508   0.24392
O     2.33253  -1.14105   0.33290
N     0.16093  -0.24383   0.21467
N    -0.35735  -1.46601   0.34312
N    -1.60186  -1.54301   0.14228
C    -2.39882  -0.12928  -0.17055
C    -3.30874   0.10683   1.03320
C    -1.36024   0.85483  -0.45963
C    -0.98839   1.16682  -1.88152
H     3.88408   0.95535   0.98996
H     3.82750   0.79603  -0.79772
H     3.49581   2.38850  -0.02753
H    -3.00205  -0.44333  -1.08335
H    -2.72966   0.50039   1.88064
H    -3.75302  -0.85689   1.33440
H    -4.17774   0.81011   0.88582
H    -1.26706   1.69911   0.23882
H     0.04283   1.51998  -1.90976
H    -1.09286   0.27352  -2.52316
H    -1.61766   1.96933  -2.35657
22

C     3.37868   1.30009   0.07348
O     1.96305   1.07321   0.13405
C     1.56823  -0.20830   0.24601
O     2.33874  -1.14439   0.33186
N     0.16875  -0.24767   0.22379
N    -0.35817  -1.45924   0.34161
N    -1.58678  -1.56693   0.14583
C    -2.41500  -0.10913  -0.17706
C    -3.31233   0.10849   1.03456
C    -1.37926   0.86565  -0.46637
C    -0.99033   1.16789  -1.88396
H     3.88473   0.95569   0.98986
H     3.82792   0.79638  -0.79785
H     3.49553   2.38868  -0.02754
H    -3.00331  -0.44459  -1.08291
H    -2.72993   0.50174   1.88008
H    -3.75037  -0.85791   1.33463
H    -4.18143   0.80793   0.88988
H    -1.26833   1.69973   0.23805
H     0.04335   1.51669  -1.90785
H    -1.09429   0.27360  -2.52348
H    -1.61376   1.97103  -2.36024
22

C     3.38001   1.30052   0.07340
O     1.96522   1.07019   0.13506
C     1.57414  -0.21153   0.24811
O     2.34495  -1.14772   0.33082
N     0.17656  -0.25150   0.23290
N    -0.35900  -1.45247   0.34010
N    -1.57171  -1.59086   0.14937
C    -2.43119  -0.08898  -0.18357
C    -3.31592   0.11015   1.03593
C    -1.39827   0.87647  -0.47310
C    -0.99228   1.16896  -1.88640
H     3.88538   0.95603   0.98977
H     3.82834   0.79673  -0.79797
H     3.49525   2.38886  -0.02756
H    -3.00456  -0.44584  -1.08246
H    -2.73019   0.50309   1.87952
H    -3.74773  -0.85894   1.33485
H    -4.18513   0.80574   0.89393
H    -1.26960   1.70036   0.23728
H     0.04388   1.51339  -1.90595
H    -1.09571   0.27368  -2.52379
H    -1.60986   1.97272  -2.36391
22

C     3.38134   1.30096   0.07331
O     1.96740   1.06717   0.13607
C     1.58004  -0.21475   0.25020
O     2.35116  -1.15106   0.32978
N     0.18438  -0.25534   0.24202
N    -0.35982  -1.44570   0.33858
N    -1.55664  -1.61478   0.15292
C    -2.44737  -0.06883  -0.19008
C    -3.31950   0.11181   1.03729
C    -1.41728   0.88729  -0.47983
C    -0.99422   1.17003  -1.88885
H     3.88603   0.95636   0.98967
H     3.82875   0.79708  -0.79810
H     3.49498   2.38903  -0.02758
H    -3.00581  -0.44710  -1.08202
H    -2.73046   0.50445   1.87896
H    -3.74508  -0.85997   1.33508
H    -4.18882   0.80355   0.89799
H    -1.27088   1.70099   0.23650
H     0.04440   1.51009  -1.90404
H    -1.09714   0.27375  -2.52410
H    -1.60596   1.97442  -2.36758
22

C     3.38267   1.30139   0.07323
O     1.96957   1.06415   0.13707
C     1.58594  -0.21797   0.25229
O     2.35737  -1.15439   0.32873
N     0.19219  -0.25917   0.25114
N    -0.36064  -1.43893   0.33707
N    -1.54156  -1.63870   0.15647
C    -2.46356  -0.04868  -0.19660
C    -3.32309   0.11347   1.03865
C    -1.43629   0.89811  -0.48657
C    -0.99616   1.17109  -1.89129
H     3.88668   0.95670   0.98958
H     3.82917   0.79743  -0.79822
H     3.49470   2.38921  -0.02759
H    -3.00706  -0.44835  -1.08157
H    -2.73073   0.50580   1.87841
H    -3.74243  -0.86100   1.33531
H    -4.19252   0.80137   0.90204
H    -1.27215   1.70161   0.23573
H     0.04493   1.50679  -1.90214
H    -1.09856   0.27383  -2.52441
H    -1.60206   1.97611  -2.37125
22

C     3.38401   1.30182   0.07315
O     1.97175   1.06114   0.13808
C     1.59185  -0.22120   0.25439
O     2.36358  -1.15773   0.32769
N     0.20001  -0.26300   0.26025
N    -0.36147  -1.43216   0.33556
N    -1.52649  -1.66262   0.16001
C    -2.47974  -0.02853  -0.20311
C    -3.32668   0.11512   1.04001
C    -1.45530   0.90893  -0.49330
C    -0.99811   1.17216  -1.89373
H     3.88733   0.95704   0.98948
H     3.82959   0.79778  -0.79835
H     3.49442   2.38939  -0.02761
H    -3.00832  -0.44961  -1.08113
H    -2.73099   0.50715   1.87785
H    -3.73978  -0.86202   1.33553
H    -4.19621   0.79918   0.90610
H    -1.27342   1.70224   0.23495
H     0.04545   1.50350  -1.90023
H    -1.09999   0.27391  -2.52472
H    -1.59816   1.97781  -2.37492
22

C     3.38534   1.30226   0.07306
O     1.97392   1.05812   0.13909
C     1.59775  -0.22442   0.25648
O     2.36979  -1.16107   0.32665
N     0.20782  -0.26684   0.26937
N    -0.36229  -1.42539   0.33405
N    -1.51142  -1.68654   0.16356
C    -2.49593  -0.00838  -0.20962
C    -3.33027   0.11678   1.04137
C    -1.47431   0.91975  -0.50003
C    -1.00005   1.17323  -1.89618
H     3.88798   0.95737   0.98938
H     3.83001   0.79813  -0.79847
H     3.49414   2.38957  -0.02763
H    -3.00957  -0.45086  -1.08069
H    -2.73126   0.50850   1.87729
H    -3.73714  -0.86305   1.33576
H    -4.19991   0.79700   0.91016
H    -1.27469   1.70286   0.23418
H     0.04598   1.50020  -1.89833
H    -1.10141   0.27399  -2.52503
H    -1.59426   1.97950  -2.37859
22

C     3.38667   1.30269   0.07298
O     1.97610   1.05510   0.14010
C     1.60366  -0.22764   0.25857
O     2.37600  -1.16440   0.32561
N     0.21564  -0.27067   0.27848
N    -0.36311  -1.41862   0.33253
N    -1.49635  -1.71046   0.16710
C    -2.51211   0.01177  -0.21613
C    -3.33386   0.11844   1.04274
C    -1.49332   0.93057  -0.50676
C    -1.00200   1.17430  -1.89862
H     3.88863   0.95771   0.98929
H     3.83043   0.79848  -0.79860
H     3.49386   2.38974  -0.02764
H    -3.01082  -0.45212  -1.08024
H    -2.73152   0.50985   1.87673
H    -3.73449  -0.86408   1.33598
H    -4.20360   0.79481   0.91421
H    -1.27596   1.70349   0.23341
H     0.04650   1.49690  -1.89642
H    -1.10284   0.27407  -2.52534
H    -1.59036   1.98120  -2.38226
22

C     3.38801   1.30312   0.07289
O     1.97828   1.05208   0.14111
C     1.60956  -0.23086   0.26067
O     2.38221  -1.16774   0.32457
N     0.22345  -0.27450   0.28760
N    -0.36394  -1.41185   0.33102
N    -1.48127  -1.73438   0.17065
C    -2.52830   0.03192  -0.22264
C    -3.33744   0.12010   1.04410
C    -1.51234   0.94139  -0.51350
C    -1.00394   1.17536  -1.90106
H     3.88928   0.95805   0.98919
H     3.83084   0.79883  -0.79872
H     3.49359   2.38992  -0.02766
H    -3.01208  -0.45337  -1.07980
H    -2.73179   0.51120   1.87617
H    -3.73184  -0.86511   1.33621
H    -4.20729   0.79262   0.91827
H    -1.27724   1.70411   0.23263
H     0.04702   1.49360  -1.89452
H    -1.10426   0.27415  -2.52565
H    -1.58646   1.98289  -2.38593
22

C     3.38934   1.30355   0.07281
O     1.98045   1.04906   0.14211
C     1.61547  -0.23409   0.26276
O     2.38842  -1.17107   0.32353
N     0.23127  -0.27834   0.29671
N    -0.36476  -1.40508   0.32951
N    -1.46620  -1.75830   0.17419
C    -2.54448   0.05207  -0.22915
C    -3.34103   0.12176   1.04546
C    -1.53135   0.95221  -0.52023
C    -1.00588   1.17643  -1.90351
H     3.88993   0.95838   0.98910
H     3.83126   0.79918  -0.79884
H     3.49331   2.39010  -0.02768
H    -3.01333  -0.45463  -1.07935
H    -2.73205   0.51255   1.87562
H    -3.72920  -0.86614   1.33644
H    -4.21099   0.79044   0.92232
H    -1.27851   1.70474   0.23186
H     0.04755   1.49030  -1.89262
H    -1.10569   0.27423  -2.52596
H    -1.58256   1.98459  -2.38961
22

C     3.39067   1.30399   0.07272
O     1.98263   1.04605   0.14312
C     1.62137  -0.23731   0.26485
O     2.39463  -1.17441   0.32249
N     0.23908  -0.28217   0.30583
N    -0.36559  -1.39831   0.32800
N    -1.45113  -1.78222   0.17774
C    -2.56067   0.07222  -0.23566
C    -3.34462   0.12342   1.04682
C    -1.55036   0.96302  -0.52696
C    -1.00783   1.17750  -1.90595
H     3.89058   0.95872   0.98900
H     3.83168   0.79954  -0.79897
H     3.49303   2.39028  -0.02769
H    -3.01458  -0.45588  -1.07891
H    -2.73232   0.51390   1.87506
H    -3.72655  -0.86716   1.33666
H    -4.21468   0.78825   0.92638
H    -1.27978   1.70537   0.23108
H     0.04807   1.48701  -1.89071
H    -1.10711   0.27431  -2.52627
H    -1.57866   1.98628  -2.39328
22

C     3.39200   1.30442   0.07264
O     1.98480   1.04303   0.14413
C     1.62727  -0.24053   0.26695
O     2.40084  -1.17774   0.32145
N     0.24690  -0.28600   0.31495
N    -0.36641  -1.39154   0.32649
N    -1.43605  -1.80614   0.18129
C    -2.57685   0.09237  -0.24217
C    -3.34821   0.12508   1.04818
C    -1.56937   0.97384  -0.53370
C    -1.00977   1.17856  -1.90839
H     3.89124   0.95905   0.98890
H     3.83210   0.79989  -0.79909
H     3.49275   2.39045  -0.02771
H    -3.01584  -0.45714  -1.07846
H    -2.73258   0.51525   1.87450
H    -3.72390  -0.86819   1.33689
H    -4.21838   0.78607   0.93044
H    -1.28105   1.70599   0.23031
H     0.04860   1.48371  -1.88881
H    -1.10853   0.27439  -2.52658
H    -1.57476   1.98798  -2.39695
22

C     3.39334   1.30485   0.07256
O     1.98698   1.04001   0.14514
C     1.63318  -0.24376   0.26904
O     2.40705  -1.18108   0.32041
N     0.25471  -0.28984   0.32406
N    -0.36723  -1.38477   0.32497
N    -1.42098  -1.83006   0.18483
C    -2.59304   0.11252  -0.24868
C    -3.35179   0.12674   1.04955
C    -1.58838   0.98466  -0.54043
C    -1.01171   1.17963  -1.91083
H     3.89189   0.95939   0.98881
H     3.83252   0.80024  -0.79922
H     3.49247   2.39063  -0.02773
H    -3.01709  -0.45839  -1.07802
H    -2.73285   0.51660   1.87394
H    -3.72125  -0.86922   1.33711
H    -4.22207   0.78388   0.93449
H    -1.28232   1.70662   0.22954
H     0.04912   1.48041  -1.88690
H    -1.10996   0.27447  -2.52689
H    -1.57086   1.98967  -2.40062
22

C     3.39467   1.30529   0.07247
O     1.98915   1.03699   0.14615
C     1.63908  -0.24698   0.27114
O     2.41326  -1.18442   0.31937
N     0.26253  -0.29367   0.33318
N    -0.36806  -1.37799   0.32346
N    -1.40591  -1.85398   0.18838
C    -2.60922   0.13267  -0.25519
C    -3.35538   0.12840   1.05091
C    -1.60739   0.99548  -0.54716
C    -1.01366   1.18070  -1.91328
H     3.89254   0.95973   0.98871
H     3.83293   0.80059  -0.79934
H     3.49220   2.39081  -0.02774
H    -3.01834  -0.45965  -1.07757
H    -2.73312   0.51795   1.87338
H    -3.71861  -0.87025   1.33734
H    -4.22577   0.78170   0.93855
H    -1.28360   1.70724   0.22876
H     0.04965   1.47711  -1.88500
H    -1.11138   0.27454  -2.52720
H    -1.56696   1.99137  -2.40429
22

C     3.39600   1.30572   0.07239
O     1.99133   1.03398   0.14715
C     1.64499  -0.25020   0.27323
O     2.41947  -1.18775   0.31832
N     0.27034  -0.29750   0.34229
N    -0.36888  -1.37122   0.32195
N    -1.39084  -1.87790   0.19192
C    -2.62541   0.15282  -0.26170
C    -3.35897   0.13006   1.05227
C    -1.62640   1.00630  -0.55389
C    -1.01560   1.18177  -1.91572
H     3.89319   0.96006   0.98862
H     3.83335   0.80094  -0.79947
H     3.49192   2.39099  -0.02776
H    -3.01960  -0.46091  -1.07713
H    -2.73338   0.51930   1.87283
H    -3.71596  -0.87127   1.33757
H    -4.22946   0.77951   0.94260
H    -1.28487   1.70787   0.22799
H     0.05017   1.47382  -1.88309
H    -1.11281   0.27462  -2.52751
H    -1.56306   1.99306  -2.40796
22

C     3.39734   1.30615   0.07230
O     1.99350   1.03096   0.14816
C     1.65089  -0.25342   0.27532
O     2.42568  -1.19109   0.31728
N     0.27816  -0.30134   0.35141
N    -0.36971  -1.36445   0.32044
N    -1.37576  -1.90182   0.19547
C    -2.64159   0.17297  -0.26821
C    -3.36256   0.13171   1.05363
C    -1.64542   1.01712  -0.56063
C    -1.01755   1.18283  -1.91816
H     3.89384   0.96040   0.98852
H     3.83377   0.80129  -0.79959
H     3.49164   2.39116  -0.02778
H    -3.02085  -0.46216  -1.07668
H    -2.73365   0.52065   1.87227
H    -3.71331  -0.87230   1.33779
H    -4.23316   0.77732   0.94666
H    -1.28614   1.70850   0.22721
H     0.05069   1.47052  -1.88119
H    -1.11423   0.27470  -2.52782
H    -1.55916   1.99476  -2.41163
22

C     3.39867   1.30659   0.07222
O     1.99568   1.02794   0.14917
C     1.65680  -0.25665   0.27742
O     2.43189  -1.19442   0.31624
N     0.28597  -0.30517   0.36052
N    -0.37053  -1.35768   0.31893
N    -1.36069  -1.92574   0.19901
C    -2.65778   0.19312  -0.27472
C    -3.36615   0.13337   1.05499
C    -1.66443   1.02794  -0.56736
C    -1.01949   1.18390  -1.92061
H     3.89449   0.96074   0.98842
H     3.83419   0.80164  -0.79972
H     3.49136   2.39134  -0.02779
H    -3.02210  -0.46342  -1.07624
H    -2.73391   0.52200   1.87171
H    -3.71067  -0.87333   1.33802
H    -4.23685   0.77514   0.95072
H    -1.28741   1.70912   0.22644
H     0.05122   1.46722  -1.87928
H    -1.11566   0.27478  -2.52813
H    -1.55526   1.99645  -2.41530
22

C     3.40000   1.30702   0.07213
O     1.99785   1.02492   0.15018
C     1.66270  -0.25987   0.27951
O     2.43810  -1.19776   0.31520
N     0.29379  -0.30900   0.36964
N    -0.37135  -1.35091   0.31741
N    -1.34562  -1.94966   0.20256
C    -2.67396   0.21327  -0.28123
C    -3.36973   0.13503   1.05636
C    -1.68344   1.03876  -0.57409
C    -1.02143   1.18497  -1.92305
H     3.89514   0.96107   0.98833
H     3.83461   0.80199  -0.79984
H     3.49108   2.39152  -0.02781
H    -3.02335  -0.46467  -1.07580
H    -2.73418   0.52335   1.87115
H    -3.70802  -0.87436   1.33825
H    -4.24055   0.77295   0.95477
H    -1.28868   1.70975   0.22566
H     0.05174   1.46392  -1.87738
H    -1.11708   0.27486  -2.52844
H    -1.55136   1.99815  -2.41897
22

C     3.40133   1.30745   0.07205
O     2.00003   1.02191   0.15119
C     1.66860  -0.26309   0.28160
O     2.44431  -1.20109   0.31416
N     0.30160  -0.31284   0.37876
N    -0.37218  -1.34414   0.31590
N    -1.33054  -1.97358   0.20611
C    -2.69015   0.23342  -0.28774
C    -3.37332   0.13669   1.05772
C    -1.70245   1.04958  -0.58083
C    -1.02338   1.18604  -1.92549
H     3.89579   0.96141   0.98823
H     3.83502   0.80234  -0.79997
H     3.49081   2.39170  -0.02783
H    -3.02461  -0.46593  -1.07535
H    -2.73444   0.52470   1.87059
H    -3.70537  -0.87539   1.33847
H    -4.24424   0.77077   0.95883
H    -1.28996   1.71037   0.22489
H     0.05227   1.46062  -1.87547
H    -1.11851   0.27494  -2.52875
H    -1.54746   1.99984  -2.42264
