13

C 3.352925567 -0.506528238 -0.679099085
C 1.050159074 1.140807649 -0.612292769
O 0.832063193 3.378448454 -0.445860886
N -0.797397566 -0.695833574 2.053455946
C -1.986189576 -1.161019480 -0.127482304
C -3.214337229 0.623344814 1.541114646
H 4.370650478 -0.114302466 -2.428706232
H 4.543511324 -0.010398124 0.922337262
H 2.860286968 -2.497151413 -0.580023731
H -2.352362223 -2.874345169 -1.197158186
H -0.606203883 0.119885794 -2.078827182
H -4.839047047 0.020574752 2.636879860
H -3.120608344 2.625005464 1.074265838

