12

O 3.118070064 2.336811572 2.642555010
C 3.588434556 0.978008877 0.902538262
C 1.738294150 -0.997523115 -0.113729765
O 2.525364552 -2.995753119 -0.834760381
N -0.830451843 -0.396917357 -0.081097030
C -2.686427988 -1.971936260 -0.831683869
C -1.889338844 1.965668851 0.013990436
H 5.472025250 0.863523278 0.007907087
H -4.409857911 -1.969636784 0.246013636
H -2.390251553 -3.243550071 -2.408988319
H -2.913632217 2.588295550 -1.629808450
H -1.748004281 3.100049126 1.707328587

