11

C -3.791114014 -0.827050128 -0.166450082
N -1.082755357 -0.465052264 0.090235991
C 3.108181845 2.811903743 0.187946057
C 3.391970691 0.354686249 -0.041572312
N 2.826089690 -1.893722234 -0.643576619
N 0.165321991 -2.200401597 -0.791011161
H -4.245707456 -2.595826033 -1.123655456
H -4.627640362 -0.793172025 1.717728185
H -4.551552467 0.775193246 -1.217141870
H 3.316763541 3.704098570 2.030405047
H 5.495443965 1.140951061 -0.040553164

