12

N -2.998338604 0.132186021 -1.239951601
C -0.568996876 0.576849142 -0.125308987
C -1.054314242 3.103790859 1.154188913
N 1.641425088 0.910925887 -1.765912686
C 3.280794437 -0.621429539 -0.897970453
N 2.572592058 -2.163109855 1.200987376
C 0.283978726 -1.520633265 1.600568831
H -3.401837481 1.490772966 -2.518859944
H -3.188747352 -1.612832889 -1.993033578
H -0.622546159 2.901897603 3.196732012
H 5.159858217 -0.821673460 -1.689242094
H -0.860535357 -2.335258330 3.096056966

