12

C -2.216420390 -0.041594006 -1.175935598
C 0.024894288 -0.584549719 2.294617408
O 1.802901184 -2.058596624 1.498152648
C 2.607607511 -0.185720715 -0.440576871
C 0.182709966 1.429258922 0.330928782
O -0.039246607 3.775159982 0.371233069
H -3.974128868 0.491656093 -0.251132224
H -2.082230314 0.954329815 -2.971429320
H -2.122566972 -2.078223679 -1.490189135
H -1.188953203 -1.171803542 3.851201900
H 2.764589120 -1.093635966 -2.279476525
H 4.362625794 0.681500379 0.174981156

