14

C -2.692137304 1.852374006 -1.147493330
C -1.693302983 -0.708748132 -0.298188767
C 2.227699617 -3.450680589 0.347521749
C 1.181308619 -0.944683444 -0.425463919
N 2.523749044 0.761002556 1.253273150
N 4.041027610 -0.450888181 2.666216895
N 3.932242672 -2.923496851 2.190935902
H -4.752620858 1.871925887 -1.109685901
H -2.055742136 3.384401148 0.083064594
H -2.096873216 2.291351885 -3.074781182
H -2.299259293 -1.127225847 1.630830962
H -2.445853569 -2.214119157 -1.486300796
H 1.853712026 -0.609798614 -2.362256375
H 2.448462714 2.657381386 1.414384415

