17

C 3.646762692 -0.015704985 1.441270701
C 4.458354161 0.677310894 -0.745019933
C 2.306026251 -1.160248830 -0.778931143
C -0.357697565 -0.443898254 -1.562398726
C -2.417538385 -1.865380858 -0.040132870
C -2.791887518 0.529333245 1.582297995
C -1.385593474 2.058222553 -0.462615897
H 3.777944040 0.099172185 3.467775713
H -1.729553165 0.440903492 3.347301799
H 5.748893995 1.787519626 -1.857010543
H 2.730904166 -3.129653103 -1.238258444
H -0.510329138 -0.630879908 -3.614624781
H -1.817657450 -3.585879987 0.927521858
H -4.078348662 -2.297475203 -1.182975319
H -2.685577914 2.984424589 -1.766343922
H -4.727220803 1.084815537 2.017835062
H 0.000677977 3.445819458 0.171792111

