9

C -3.481792152 -0.789654640 0.980930394
C -0.910577440 -0.488255455 -0.192170142
H 0.533335250 -1.775798562 0.503380162
C -0.495093467 0.756398900 -2.587753935
H -0.529702440 0.828836221 -4.630790328
N 0.040822525 2.162462284 -0.775966314
H -3.384837561 -0.535682479 3.027270519
H -4.238693756 -2.675360769 0.612938735
H -4.806723169 0.596481393 0.223700714

