13

C -3.399336485 -0.576178610 1.003735703
C -0.682406333 -0.646232251 0.178861141
C 0.287844954 0.311567688 -2.187545677
N 0.662246470 1.792460768 -0.248569491
C 4.042413460 1.131612469 0.902558066
O 5.121963652 2.363771236 2.288920035
H -3.534153874 -0.304801183 3.044872486
H -4.345244925 -2.350223317 0.535799698
H -4.407714338 0.964313768 0.079483714
H 0.470315907 -2.123034546 1.059719558
H 2.749038866 -1.247874259 -2.534955875
H -0.095971177 0.658482211 -4.161320848
H 3.903608900 -0.983916917 -1.410592925

