12

O 0.394433785 -2.439899798 -2.069338470
C 0.199094855 -1.009623504 0.102619801
C -3.084231475 0.856870573 1.289782942
C -1.182757982 1.752417850 -0.313279761
O 0.972793044 3.002969189 0.707914518
C 2.422042963 0.740784244 0.734282433
H -0.445479161 -4.026933447 -1.840230909
H -4.395466400 -0.171843322 0.029970111
H -0.456879671 -2.085034252 1.734918816
H -1.409433219 2.141936513 -2.327956542
H 3.303721974 0.404018891 2.567969599
H 3.839484747 0.694183616 -0.771332290

