14

C -3.408243029 0.219387660 0.482679969
C -0.682127353 0.692204053 0.313200411
C 1.309296897 -0.315962265 1.982815885
C 2.747981489 -0.807148704 -0.499504239
C 0.826482076 0.928097034 -2.127230362
O -0.584014133 -0.271301895 -3.726467579
H -4.053925123 1.008083207 2.286802408
H -3.834581513 -1.802753653 0.544140269
H -4.396523890 1.038356412 -1.123533266
H 2.194417193 1.192148484 3.080290111
H 0.845328164 -1.895331789 3.221157875
H 4.680280857 -0.110154460 -0.541403795
H 2.594454828 -2.733601335 -1.182785175
H 1.677330187 2.772204452 -2.613756283

