14

O -2.443044151 -0.908611841 2.770865864
C -2.903481723 -0.783652775 0.154992956
C 2.857273969 4.086537299 1.872763981
O 1.585046016 2.170915388 1.023715683
C 2.641069610 0.486093590 -0.833010022
N 1.541616236 -1.315527267 -1.802598506
C -1.002657841 -2.251424240 -1.432895605
H -1.252967468 0.391393555 3.197491984
H -4.742852259 -1.670470916 -0.157673759
H 4.733003119 4.061484859 0.872588861
H -3.049901804 1.174760472 -0.500628664
H 4.584030718 1.039751332 -1.258982447
H -1.778657887 -2.509080271 -3.331606811
H -0.797398757 -4.147777653 -0.637751103

