14

O -2.107715916 -1.136413337 2.779817762
C -2.201997414 -0.158749259 0.364038334
C 0.348519241 3.212353546 0.368684471
O 2.248794724 1.839398126 1.472411895
C 3.247224984 -0.151227846 0.119624936
N 2.070757465 -1.647346413 -1.280046695
C -0.662877166 -1.572026654 -1.579095930
H -0.407033061 -1.016925293 3.418901273
H -4.178043488 -0.008181059 -0.204845065
H 0.552446031 3.048498928 -1.700100744
H -1.815422849 2.171324306 0.734922124
H 5.264469071 -0.344494181 0.447148394
H -1.094958755 -0.869361663 -3.472228305
H -1.293085106 -3.542463359 -1.531960000

