12

N 3.238206662 -1.603459507 0.588861243
C 0.849183526 -1.331200164 -0.355515121
C -1.739941084 3.412422649 -1.376847481
N -2.466698193 1.949240082 0.496773037
C -0.918615938 -0.008702699 1.467364456
O -1.086590008 -0.619937751 3.642498562
N -0.098938369 -2.118445932 -2.404231066
H 4.386222067 -2.860714537 -0.252496021
H 3.451060632 -1.423275803 2.469009593
H -3.217273410 4.872773008 -1.568798793
H -4.018209054 2.231810357 1.602250933
H 1.150915303 -3.151012035 -3.437648906

