15

C -3.718854175 0.204786124 0.162134325
C -1.015283347 -0.215334179 -0.441568883
C 1.116364552 1.389310225 -1.345540218
C 1.234939254 4.098143014 -0.946603897
N 1.241447225 6.250357067 -0.678641658
N 1.108374147 -0.151158097 0.917421140
C 2.734319071 -1.867035862 1.754085476
H -4.034360808 2.062432012 1.014663555
H -4.837560759 0.089043120 -1.562117232
H -4.388006309 -1.247177744 1.461441997
H 0.077193611 -3.148873602 -1.491382213
H 2.193551075 0.708221126 -2.964022217
H 1.435961119 -3.815893293 -0.923960915
H 2.073856937 -3.124081982 3.226703030
H 4.722534490 -1.402108414 1.667534319

