14

C 5.001069860 -0.070703479 0.427585061
N 2.553049531 -0.581474946 -0.704461194
C -0.571969982 1.957626120 -0.873960198
C -2.435654150 0.664733217 -0.385858925
C -5.106061513 0.028873636 0.023696391
N -0.787700153 -2.972585492 0.378666533
N 1.292520872 -2.410620117 0.084093474
H 4.890961018 0.125227520 2.481579106
H 5.663611316 1.702916946 -0.376025906
H 6.369566698 -1.538306910 -0.049713516
H 0.529590474 3.556420347 -1.411163736
H -5.694699314 -1.470180903 -1.261833383
H -5.391067153 -0.664121060 1.943370517
H -6.313217465 1.672193212 -0.275976132

