14

C 2.680984915 -1.090560455 1.529990490
C 0.903868307 0.889645454 0.479763385
O 2.391389905 2.731770625 -0.768708198
C -0.975363280 -0.232127305 -1.338824491
C -3.572357692 -0.775180963 -0.598747383
O -2.988042072 1.396988333 -2.057691464
H 3.727615720 -1.996455229 0.000349221
H 4.037590028 -0.214099979 2.807626083
H 1.633858700 -2.535109265 2.564435622
H -0.157695151 1.775762468 2.029946997
H 1.266771804 3.961647302 -1.487932632
H -0.150390244 -1.281309561 -2.905702416
H -4.171744520 -0.396865465 1.329130215
H -4.626486420 -2.234105977 -1.583635449

