12

C -2.426000031 -0.815285959 -0.666430191
C -0.245350853 -0.745331435 1.089209906
O -0.006486334 -2.834399591 2.471002233
C 1.406575727 1.275812235 1.455329867
C 2.702579798 1.857243093 -1.078935692
O 0.822048117 3.422004052 0.000270779
H -2.466461070 0.872522929 -1.832442762
H -2.365814597 -2.514206758 -1.832736029
H -4.160644326 -0.896677616 0.456098534
H 2.492530674 1.483574451 3.183215594
H 1.867797705 0.864125610 -2.727960748
H 1.404073578 -2.690012912 3.612991301

