13

C 4.970222008 -1.214350801 0.232916927
N 2.331020827 -0.478397397 0.139433952
C 1.445487550 1.998785488 -0.253682825
H 2.860063016 3.448508236 -0.527764696
C -1.135631066 2.063649487 -0.216893203
C -1.620708455 -0.631692717 0.236621962
C -3.840547265 -1.817525207 0.467199843
H -5.574832323 -0.743144701 0.323571436
H -3.934530791 -3.837438042 0.796943862
N 0.615561107 -2.111622642 0.439938220
H 5.897537641 -0.590542589 -1.495069636
H 5.071041505 -3.255516346 0.415423747
H 5.859099818 -0.302952691 1.850956617

