15

C -3.275286302 -1.156717915 0.283312219
C -0.933686787 0.455218923 0.234475857
O -1.295103863 2.876536345 -0.755226192
C 0.930494681 0.328863482 2.296519644
C 1.596142110 -0.832248500 -0.250939397
C 3.515867656 0.445838190 -1.816484705
O 4.874657160 -0.635673576 -3.285491843
H -4.758858806 -0.201690205 1.351180427
H -3.967575694 -1.500849514 -1.632356368
H -2.905030542 -2.984868372 1.158530899
H -1.882993597 2.725411942 -2.466027491
H 1.884401254 2.075661758 2.772822808
H 0.610694156 -0.949884915 3.857987264
H 3.643702242 2.521164087 -1.565307392
H 1.592282628 -2.871818946 -0.419854040

