17

C 4.775120636 -0.661205533 1.061622966
C 2.469741824 -0.867874354 -0.673367603
C 0.175001055 -0.919532663 1.033400851
C -0.897738849 1.658249679 1.349756594
N -2.408597524 0.632687053 -0.731733741
C -5.004203177 0.109092377 0.115186895
H 4.733654565 1.086344760 2.159605358
H 4.844666356 -2.239672241 2.385989030
H 6.511262256 -0.670499339 -0.048696749
H 2.454997935 0.720567746 -2.006514053
H 2.601882057 -2.614839436 -1.763673814
H -1.693559514 -1.492852874 -0.568781070
H 0.256505415 3.255770231 0.755013277
H -1.961702051 2.055369879 3.065195886
H -5.989233332 -0.972686029 -1.335395885
H -5.960096306 1.919413117 0.357701080
H -5.060538596 -0.928229183 1.905945587

