11

C -1.982375655 -2.300124523 0.649309178
C -0.685790795 0.204348161 0.705118176
O -1.736936854 1.802751177 2.453641055
C 1.223617319 0.829931015 -0.730784418
C 3.126770250 1.460208063 -2.158810293
H -3.979964739 -2.044464761 0.199313137
H -1.862888253 -3.194363523 2.505220317
H -1.125212609 -3.535589272 -0.752198435
H 2.851204679 2.330189272 -3.997711988
H -0.844236790 3.382544889 2.419637758
H 5.066596038 1.130195930 -1.573710324

