16

C 2.746301560 1.269473394 -0.296552415
C 0.211887318 0.042107974 0.272730622
C 0.463485114 -2.250332886 1.986450622
C -1.983813906 1.891755539 0.927297075
N -3.291741772 1.184700639 -1.471477804
C -1.479425028 -0.319772142 -1.971981519
O -1.166842784 -1.822938706 -3.963288869
H 4.019302808 -0.068334519 -1.217724737
H 3.642535166 1.907326448 1.450084195
H 2.524257777 2.900603708 -1.539586405
H 1.300089849 -1.705366182 3.793189386
H 1.678243000 -3.678933862 1.124861762
H -1.373291073 -3.112285575 2.358576058
H -3.079636096 1.399145702 2.603848468
H -1.465474956 3.887128579 0.993338751
H -2.607293911 -1.603756213 -5.060591395

