16

C 2.808813134 1.268020988 -0.229160227
C 0.309932413 -0.068385466 0.229647588
C 0.538459110 -2.258028020 2.071934651
C -2.020318540 1.707841270 0.664572024
N -3.080185628 0.746223820 -1.778184209
C -1.144930937 -0.684557559 -2.178810852
O -1.242190775 -1.829899399 -4.277431328
H 4.202827681 -0.051031166 -0.985287403
H 3.546001663 2.041753911 1.536091678
H 2.594031700 2.813449369 -1.577755944
H 1.203317635 -1.582839024 3.905210764
H 1.887630210 -3.654130261 1.375188302
H -1.275345567 -3.201066854 2.343634163
H -3.195485813 1.248428062 2.293747529
H -1.598382418 3.724623244 0.630637002
H -3.395592692 -0.299875385 -4.034858051

