11

O -3.729708743 1.268581821 1.194750448
C -1.525429484 1.867154480 0.311454021
C 0.347971788 0.143833575 -0.178454359
C -0.136906425 -2.486386248 0.309927500
O -2.150189684 -3.280365734 1.146312214
C 2.781642784 0.992098184 -1.177064898
O 3.322581800 3.159976366 -1.630611716
H -1.231535611 3.870791576 -0.031228745
H 1.399297465 -3.836192089 -0.098496041
H -3.731406605 -0.610518562 1.414886667
H 4.174166601 -0.540113754 -1.513562666

