9

C 0.536011782 2.527201006 1.998225260
O 2.059795221 4.100295298 0.982089155
H 1.531980655 4.422016428 -0.805773361
C -1.458216216 1.883440858 -0.158932430
O -1.201976005 2.893870689 -2.192802460
C -3.497245879 0.077630081 0.503025347
H -2.634120274 -1.679850212 1.161326598
H -4.761020350 -0.271542835 -1.078736609
H -4.536560911 0.831218920 2.121805166

