12

C -2.588794740 -0.395694156 0.065061211
O -1.519785326 1.964065342 -0.600374437
C 1.076450815 1.662037295 -1.087473871
C 1.986530407 -0.509922469 0.525441921
O 0.824435446 -0.449701868 2.926598780
C -0.878355153 -2.041831314 1.677431835
H -4.262119463 -0.032431839 1.226276390
H -3.189040675 -1.473733078 -1.601686340
H 1.456707005 1.279687666 -3.093567157
H 2.017501279 3.419237191 -0.555394117
H 4.003814859 -0.884525846 0.664641679
H 1.245933964 -2.466507369 -0.266636010

