12

C 3.501214209 -0.984292746 0.349559630
C 0.824350824 -0.139923732 0.321873026
C -0.520743948 1.452526685 1.850541784
C -3.093002507 1.312746516 0.559667393
C -2.946597997 -0.502953632 -1.374516107
O -0.644222980 -1.319428342 -1.546700128
H 4.444959234 -0.062021775 1.925013566
H 4.481188156 -0.473387222 -1.394557579
H 3.654028405 -3.028917094 0.589853746
H -1.910836765 2.988231952 -0.207651969
H -4.846519100 2.028327029 1.325201550
H -4.316393663 -1.279925413 -2.673190929

