13

C -2.852211318 -4.366613513 1.027597067
C -2.187740602 -1.548891322 1.029201709
C 0.386420231 -0.991766651 0.054378646
O 2.070773547 -0.205340343 1.620217202
C 4.443260937 0.355463097 1.283474847
H 5.261354557 0.186141009 -0.580761121
H 5.410977156 1.020945250 2.940485678
H 0.958230664 -1.288090352 -1.894701622
H -2.318632293 -0.792958505 2.946243277
H -3.593726621 -0.528928730 -0.099827031
H -2.713967307 -5.159025906 -0.873197089
H -1.569315104 -5.426610445 2.245756555
H -4.780603147 -4.671767640 1.696917954

