14

O 3.704289848 1.932954403 -1.115364471
C 3.916730440 -0.137940634 0.313996156
C 0.256580305 -2.113063520 -0.164715956
C -1.284917445 0.071703201 -1.004602785
C -3.664427303 0.800726508 0.204351903
O -1.415003849 2.169008862 0.695682490
H 2.651373360 3.200572124 -0.328774476
H 2.801968810 -2.013826348 -0.512272249
H 3.319698021 0.179324502 2.272812425
H 0.071910391 -3.711968258 -1.458140060
H -0.127385323 -2.698346245 1.767615235
H -1.019163144 0.638106731 -2.962634005
H -4.365758714 -0.316732253 1.776967508
H -5.090391922 1.819930489 -0.864860203

