12

C -3.948305496 0.654896909 0.024019912
C -1.159502729 0.330288543 0.149853260
C 0.751188490 1.417573668 2.051162763
H 0.712305051 1.655761287 4.081215754
C 2.545520654 1.604003862 0.294367552
H 4.535943991 2.063012026 0.331935685
C 0.819764969 0.510494092 -1.743471527
H 0.698656674 0.902782660 -3.745026730
O -0.031565305 -1.915209686 -0.867387126
H -4.450165732 2.644733732 0.225305281
H -4.871642347 -0.396154739 1.541368379
H -4.665019693 -0.041400668 -1.776746354

