14

C -3.535371273 1.063072612 0.545544827
C -1.140457332 -0.123715040 -0.317635201
C 1.127491278 -1.375102376 1.140830817
C 2.772649917 0.018127425 -0.471259674
C 0.732004066 0.741221564 -2.280734648
O -1.003715502 -1.305365170 -2.685243130
H -3.162032237 2.402188990 2.066608855
H -4.813518661 -0.387853229 1.266234876
H -4.461958568 2.035494099 -1.015963951
H 3.068712232 -1.533647147 2.760968273
H 1.044511212 -3.421583664 1.002093191
H 4.121752194 1.404580970 0.162473758
H 4.769144774 -1.794294899 1.470028119
H 0.618556475 2.302064025 -3.594257634

