18

C 5.373084652 0.701050843 -0.324394676
N 2.755444490 0.454736098 -1.054120602
C 0.870202081 0.054586497 0.639066598
O 1.245186388 -0.147399318 2.897017121
C -1.775291945 -0.150242014 -0.480584188
C -2.830196575 -2.783774338 0.049737025
C -3.455233601 1.907510451 0.645490495
H 6.047897460 2.638591612 -0.557854994
H 6.563430999 -0.560972457 -1.439446020
H 5.521644413 0.188495967 1.660984849
H 2.289825157 0.642296197 -2.882128932
H -1.665153793 0.123761943 -2.529970249
H -2.901640411 -3.115661363 2.082987017
H -1.657683573 -4.254526600 -0.798397647
H -4.738636223 -2.963030054 -0.713170848
H -5.368762621 1.771069692 -0.113507704
H -3.543605131 1.700597421 2.694441787
H -2.730511784 3.792909405 0.223850947

