18

C 4.219589514 1.881093515 0.169667699
N 2.013651302 0.773702460 -0.987052332
C 0.660885244 -1.319199269 0.359776510
O 1.607602411 -2.131615131 2.290703558
C -1.691920819 -1.719780692 -0.746997172
C -3.594418090 -3.458853504 0.401662025
C -1.195131549 2.747374849 -0.008029560
H 3.916404273 3.903171900 0.521864934
H 5.892153055 1.676329728 -1.016291800
H 4.544395640 0.930197087 1.968827963
H 2.162805231 0.467912440 -2.863624715
H -1.932169732 -1.164266331 -2.704135856
H -2.988250471 -4.023078651 2.288705645
H -3.874721469 -5.179286869 -0.713734780
H -5.449898447 -2.553317891 0.574346672
H -3.146507041 2.572196633 -0.580691976
H -0.925780154 2.617382630 2.015827039
H -0.244049021 4.346371863 -0.873026730

