13

C 3.318442034 -0.734304316 0.260948936
C 0.763840887 -0.181297017 -0.856731546
N 0.607575068 0.616303997 -3.587546423
C -0.303633200 -1.477210571 -2.979531048
C -3.337573545 0.426959543 1.036556618
O -4.414301413 1.938802104 2.761702998
N -0.927909592 1.052309016 0.862308468
H 4.572134986 -1.521801607 -1.167123238
H 3.156321749 -2.073730005 1.821897920
H 4.186217442 0.994801570 0.987169363
H -1.286552172 -3.058024432 -3.819023965
H -6.158519288 1.466488945 2.871936751
H -0.213087256 2.481980975 1.927247544

