12

C -3.925666501 1.380701086 -0.017101303
C -1.092341295 1.579931642 -0.027945459
O -0.000719305 3.591502205 -0.061733384
N 0.097430065 -0.798525298 0.004690924
C 2.521551784 -0.720757455 0.010889566
N 3.924076051 -2.821516402 0.038090284
H -4.778671450 3.249198708 -0.059794544
H -4.540032168 0.272385672 -1.644261321
H -4.531928474 0.355490687 1.666944044
H 3.057881588 -4.511911796 0.050850962
H 3.562367636 1.062180907 -0.004438645
H 5.814478886 -2.742788767 0.041571480

