14

O -0.532680290 3.109756233 -0.846416155
C -0.535799982 0.503136538 -0.425952470
C 2.216640543 -0.646063971 -1.566267260
C 3.626057832 -0.454561412 0.771245949
N 2.816216948 -0.170193516 2.864295700
C -2.795071310 -0.633085124 -1.213515958
C -0.464475331 -0.183202561 2.337839904
H 0.838945141 3.844814796 0.089470161
H 2.059989258 -2.606356891 -2.180703923
H 2.813143252 0.553655191 -3.123817213
H -4.269724288 0.457190058 -2.118128799
H -3.008468802 -2.658219045 -1.071671924
H -0.889202275 -2.134851514 2.797101065
H -1.387571601 1.163747148 3.583241740

