12

O 5.077292435 0.444059826 -0.248208346
C 2.792044611 0.667704434 1.044591015
H 3.264071306 1.237232814 2.969028423
C 0.738128101 2.523155216 -0.199376348
H -0.144197158 3.652527074 1.277447528
H 1.303405335 3.730345826 -1.773589793
C -0.682558002 0.168157204 -0.826117813
C -0.100943746 -2.047064722 -1.695783476
H 0.221713346 -3.118438202 -3.402311518
C 0.848409891 -1.519248001 0.915710390
H 0.105539125 -2.409428796 2.604100633
H 4.774492775 -0.427801265 -1.812942546

