11

C 0.697127885 1.818518088 -0.578530866
C -1.023287811 3.350971760 0.951222425
H 0.108810978 5.107203965 1.049223754
H -2.758270708 3.883537136 -0.021913623
H -1.380794212 2.754443237 2.907284986
C 2.364466863 0.225569351 0.952946082
C 4.841425041 -0.411335930 -0.321184920
O 6.828331163 -0.436056212 0.762175811
H 4.680352666 -0.824256432 -2.365918381
H 2.640003143 0.691568122 2.958458051
H 1.222321364 -1.532696388 0.870752955

