12

C 2.880793066 1.199803368 0.637417415
C 2.550303759 0.182434992 -1.648424747
C 0.460373850 -0.969766837 -2.388700730
C -1.263876989 -1.538276901 -0.174031058
C -1.519818642 1.020324059 1.181503752
O 0.851971477 2.182928490 1.844326361
H 4.615383202 1.362006101 1.710354908
H -0.222147057 -1.058074929 -4.319726838
H -3.143506023 -2.170072135 -0.741834743
H -0.463987063 -2.957480722 1.089955799
H -2.522057153 0.821530994 2.970627471
H -2.555604667 2.345381593 -0.019713566

