12

C 3.267321333 0.772545438 0.453727135
C 3.145412360 -1.147149117 -1.070782808
C 0.589542376 -0.445015214 -1.844034285
C -1.637768392 -1.516743339 -0.328865919
C -1.588871067 0.848404298 1.325055890
O 0.419969502 2.092080549 -0.116624372
H 4.268112257 1.915204130 1.808006052
H 0.245605021 0.091607403 -3.799609334
H -3.367085833 -1.729576257 -1.421559044
H -1.182950866 -3.281501497 0.617220344
H -1.023377668 0.590896761 3.286677419
H -3.284439625 2.010051034 1.228172012

