18

C 5.381534316 0.709544312 -0.171884575
N 2.766442337 0.471614225 -0.910652065
C 1.121943912 0.029575877 0.809674663
O 1.067383040 -0.298608966 3.170267134
C -1.589047417 -0.224028941 0.163287984
C -2.700906729 -2.802559198 0.080663829
C -3.286139263 1.949801765 0.698906968
H 6.060290757 2.622853425 -0.553838892
H 6.549002127 -0.592068240 -1.269166162
H 5.647617600 0.308156203 1.841241081
H 0.357908875 0.438003707 -2.977610652
H -1.172225933 0.259070019 -3.185347338
H -3.111821534 -3.338646607 2.033771783
H -1.386755467 -4.173109356 -0.707261750
H -4.475729021 -2.812245953 -0.964301579
H -5.080052286 1.766416279 -0.295902973
H -3.674222699 1.912424003 2.728405022
H -2.387732056 3.743241166 0.246589512

