11

C -3.452883311 0.222927986 0.231189604
C -0.675632836 0.263343370 0.080495870
C 1.577617465 1.564951179 0.018807291
N 3.388396067 -0.247548548 -0.194252772
N 2.482390252 -2.558016203 -0.268754638
N 0.067501225 -2.183867060 -0.095484252
H -2.008258969 -2.897557866 -0.010931744
H -4.346218190 1.133005896 -1.389230686
H -4.179250456 1.039481196 1.979106844
H 2.039793188 3.542919917 0.098326608
H 5.276481077 -0.021146319 -0.296283677

