12

C -2.226720531 -1.139823593 -0.472281846
H -3.889548808 -1.957293868 0.440418815
H -2.281772788 -1.663280035 -2.458862519
C -1.965284216 1.677104969 0.050963476
H -0.920489242 2.597536575 -1.469982048
H -3.761762466 2.654983852 0.275041549
C -0.402984814 1.686350265 2.479379219
H 0.880827803 3.286159616 2.637008645
H -1.592331345 1.617758668 4.168132479
O 1.090663048 -0.564706480 2.395775921
C 0.089496031 -2.273396993 0.780598808
O 0.976348734 -4.322832149 0.487909031

