12

O -3.873700922 0.022391062 -0.206476333
C -2.105967239 -1.697232971 0.733049406
C 0.621094320 -0.887366595 0.302570588
C 1.257719562 1.245597649 -0.770075981
C 1.839834577 3.372550467 -1.829916047
C 2.537927413 -2.600442539 1.161359895
N 3.998181850 -4.034734331 1.884853485
H -3.683586178 1.607644363 0.654389197
H -2.364107759 -2.058856159 2.758973875
H -2.424802549 -3.480736929 -0.253769998
H 2.078681522 3.503824469 -3.860174508
H 2.119970752 5.066543957 -0.712769470

