16

C -3.980886509 0.390217371 -0.517358712
C -2.042291066 0.723735815 1.533041074
N -1.240275349 -1.466531181 3.072065891
C 0.488087156 -0.376004306 1.312680073
C 2.146106685 -1.270645308 -0.522333189
C 3.671740468 0.743889234 -1.716729521
O 4.996739571 0.899590232 0.568594119
H -3.868300803 1.929570150 -1.885604745
H -5.885810473 0.389484403 0.277272163
H -3.690185329 -1.383585451 -1.533507742
H -2.234417291 2.437069763 2.643721708
H -2.026353985 -3.082407512 2.397886367
H 2.641031230 0.758577376 1.880451821
H 2.905021169 -3.175064450 -0.516273139
H 4.845797962 0.131248982 -3.301319943
H 2.601342861 2.439619098 -2.235945645

