11

C 3.193224359 1.021523941 -0.648906534
C 0.942126493 1.280805647 0.410741762
C -1.461554058 0.179793854 -0.619189363
C -2.354863521 -1.996808400 1.004780986
O -4.382172649 -2.107163379 2.008247461
H 3.436121289 0.007365529 -2.414506055
H 4.872259532 1.828418723 0.198351739
H 0.773058215 2.314225093 2.177611141
H -2.971039904 1.581476135 -0.712414938
H -1.125129877 -0.565376917 -2.520305396
H -0.955691571 -3.544199753 1.236102702

