14

O 3.593445959 -0.312792740 -2.682089158
C 3.182329729 0.723866376 -0.706992445
C 1.272218467 -0.133638540 1.243539662
C 0.170812949 -2.763480418 0.952434741
C -2.585281248 -0.265161589 -0.925696572
C -1.163201584 1.426458518 0.916909761
H 4.204368998 2.491910428 -0.209344162
H 2.113888215 0.141776759 3.114481531
H 0.922562234 -3.603031009 -0.797375343
H -2.363071716 -2.286557745 -0.019452104
H -1.840247388 -0.229197833 -2.839254259
H -4.637240851 -0.073364138 -0.938181652
H -0.877133974 3.359568956 0.252447530
H -2.161202668 1.504636091 2.716092776

