10

O -4.393610726 1.500502353 -0.099164021
C -3.378540559 -0.824448259 -0.113373325
O -1.016934382 -1.091969529 0.243680335
C 0.725220667 0.695160208 0.466725673
C 3.212894801 -0.103138002 0.842022900
C 5.380757318 -0.725987972 1.163155305
H -4.509054605 -2.520642164 -0.110072106
H -4.720410948 2.116688582 -1.781628480
H 0.118048942 2.636961553 0.413286316
H 7.290173633 -1.280822995 1.454980967

