9

C -2.169309347 0.782826663 -1.346328631
C -0.179790017 -1.196874387 -1.618858564
O -0.456285598 -3.355984807 -2.107412577
O 2.391856648 -0.408627234 -1.245209613
C 2.832878947 1.954921506 -0.732977899
H 4.923439457 1.992980193 -0.551935144
H -3.987803285 -0.120460913 -1.650925308
H -1.861574667 2.296868657 -2.705488956
H -2.077425874 1.647895283 0.518020909

