11

C -2.544820151 0.757582492 -1.197131976
C -0.400344224 -1.072510868 -1.008044430
O -0.285846115 -3.182962239 -1.718877611
C 0.764750525 -0.912795393 2.894334125
O 1.021049752 -1.549550534 4.941068504
C 3.537953546 0.575286112 0.642470241
O 2.180300202 0.501053304 -1.276432821
H -4.221843560 -0.154729641 -0.431688299
H -2.873376723 1.180733367 -3.189494493
H -2.158703467 2.496755837 -0.174812800
H 5.272716289 1.674926587 0.239965644

