11

C 0.133436188 0.338873210 3.589829817
N 0.054989386 0.785774295 1.259050062
C -2.400614848 1.143764730 0.098764930
C -2.815102652 -0.791922217 -1.984699130
H -2.825268888 -2.704225504 -1.211289804
H -4.619487498 -0.467247068 -2.929281794
H -1.307959159 -0.675211484 -3.385403496
H -3.935407699 1.042909839 1.498891626
H -2.420900888 3.042509592 -0.716937639
H -1.563889776 0.224270259 4.779308212
H 1.953462599 0.052256861 4.505429166

