11

N -2.997047619 -0.393232864 1.064621848
C -1.225106404 0.580375843 -1.041501256
O -1.854686407 2.222043553 -2.443923025
C 1.106217951 -0.579097406 -0.261169391
C 3.540901406 0.463572155 -1.020620009
O 5.540555242 -0.611271864 -0.775436492
H -4.054849728 -1.916007415 0.579875330
H -4.123138761 1.007151157 1.727049278
H 1.051553768 -2.625001155 -0.024144880
H -0.670382591 -0.572119290 1.873945154
H 3.460533149 2.402324106 -1.812960801

