15

C -3.056964731 0.354843153 -0.423934601
C -0.730512789 -0.913050940 1.997317625
O 0.292696127 -2.834366690 0.683685753
C 1.548845572 -1.304832683 -1.251278468
C 3.222127550 0.460593701 0.339182199
C 0.570122775 1.493248261 1.203818224
C -0.420600822 0.878759252 -1.478353232
H -4.065853131 -1.392192568 -0.830633370
H -4.368590507 1.921670338 -0.782813737
H -1.585691962 -1.436114319 3.783490858
H 2.200801350 -2.545816982 -2.758488574
H 4.511886039 -0.429551888 1.679417200
H 4.214794863 1.847592885 -0.813558882
H -2.409719190 1.723192725 1.645101720
H -0.152778480 2.210222258 -3.022857668

