17

O 4.880926647 -0.482876293 1.084508551
C 5.290783394 -2.743656416 1.893348370
C 2.846604859 -0.184597103 -0.716198283
C 0.531159816 0.845536808 0.610074552
C -1.604388931 1.295043259 -1.221116115
C -3.261208957 -0.868615807 -2.005466729
C -4.285517466 1.171380640 -0.324320693
H 6.869351145 -2.466874070 3.259212593
H 3.551945324 1.126838094 -2.142892356
H 2.489477651 -2.030184667 -1.561535877
H 1.022844085 2.596413378 1.592719627
H -0.054661368 -0.518561390 2.050472616
H -1.213391330 2.695550584 -2.667733645
H -3.914962563 -0.947118186 -3.940893801
H -2.887462325 -2.697238563 -1.164456589
H -5.632967612 2.490435232 -1.114208450
H -4.607734044 0.715413990 1.644497802

