12

C -2.125009802 -0.379363483 -1.926940747
C -0.363378536 -0.861497700 0.311646848
C -0.606323824 1.263633233 2.216953425
O 1.118514909 2.554458983 2.901716038
C 4.160934796 -0.184163619 -0.082431157
O 6.204637147 0.596297920 0.099783889
N 2.183522639 -1.239478376 -0.498193071
H -2.037384637 -1.967631936 -3.232013614
H -4.074948856 -0.161452342 -1.290835066
H -1.556415437 1.327073664 -2.933788867
H -2.548564209 1.559358005 2.943892514
H -1.009754481 -2.577365846 1.281739002

