12

C -2.654683613 -0.914846879 -1.698488222
C -0.507573766 -0.107516081 -0.054100308
C 0.370707215 2.296432452 0.449952407
O 2.659591836 2.233689236 1.348000321
C 3.505362989 -0.438584911 1.386427202
O 5.581008647 -0.897745803 2.112311428
N 1.568413346 -1.866562920 0.529240194
H -1.996753277 -1.163964315 -3.636206020
H -3.429423721 -2.710626744 -1.058512287
H -4.154759341 0.497007949 -1.681783005
H -0.550848778 4.107570744 0.238047194
H -0.471511726 -1.030852139 2.008596965

