14

C -2.794711638 -0.910775786 0.561351838
C -1.329074222 0.770452623 -1.214312213
C 0.859717275 2.306796012 -0.247000055
O 3.219433367 0.943146133 -0.148911552
C 3.133791660 -1.318530552 1.028329261
N 1.305883843 -2.845261869 0.975824127
C -0.822322921 -2.658080074 -0.483053682
H -2.618764284 -0.456065539 2.555461974
H -4.729511888 -1.284378987 -0.004208855
H -2.386492925 1.568985763 -2.780270181
H 0.492030089 3.032982745 1.650209726
H 1.232896422 3.893845195 -1.498901736
H 4.853873801 -1.744124994 2.060105552
H -0.431204983 -1.145274697 -2.465956910

