8

N 4.950343091 2.609641121 -0.538797635
C 2.711142185 1.359296329 -0.179789791
O 0.918376661 2.969606377 0.639950782
H -0.606453270 1.983111722 0.766057592
N 2.167177623 -0.940508736 -0.568148408
H 3.662413895 -1.951751207 -1.200414846
H 5.120247894 4.299860223 0.308632319
H 6.526163880 1.560065330 -0.617166505

