12

O 1.412754885 -3.836233398 -0.322870537
C 0.490379885 -1.469038677 -0.141488859
C -1.852497424 -0.597908136 0.000649707
C -1.755226720 2.227032940 0.166715324
O 0.864212707 2.855172197 0.111987476
C 2.357307617 0.653945262 -0.083342875
H 0.043851000 -5.025859854 -0.347279713
H -2.591187095 2.957928758 1.916983440
H -3.581618692 -1.686086252 -0.001689963
H -2.710276691 3.154773648 -1.422156405
H 3.640028123 0.493762986 1.536884437
H 3.506217958 0.698902640 -1.808146723

