12

O 0.658729671 -2.806634827 -2.098439496
C 0.151459867 -1.024782698 -0.272612949
C -2.146779220 -1.084453314 1.204312481
C -1.177009322 1.505960411 -0.701324136
O 0.766192802 2.878537867 0.461199717
C 2.338182814 0.637389939 0.635018861
H -0.702853472 -4.008900924 -2.045084837
H -3.176013206 1.258617825 0.348741964
H -1.873842183 -0.294466082 3.095630379
H -1.815591488 2.026407086 -2.581854172
H 3.049616096 0.309902971 2.541174662
H 3.882246169 0.750691549 -0.724982732

