13

N -3.162622191 1.997465553 0.306312624
C -1.352950855 3.386223883 1.218639950
C -0.368686909 -2.588537869 -0.877375028
O -0.450020834 -5.039538391 -0.238797018
N 1.706510922 -1.611882962 0.133349034
C 2.533970251 0.909424027 -0.125363996
C 1.150511487 3.012665752 0.136144601
H -2.883130827 0.606711104 -1.014581786
H -4.896287267 2.113042204 1.088792276
H -1.918688653 -5.755433165 -1.018817626
H 2.906892811 -2.805922155 1.039780831
H 4.542050981 1.057100719 -0.503342745
H 2.187256284 4.757426356 -0.164205276

