13

N -3.385071434 2.562472310 0.231823872
C -1.400272432 2.539273654 1.669750363
C -0.265410107 -2.843004496 -0.485490049
O -0.067637418 -5.333238094 -0.015968828
N 1.994721840 -1.838966267 -0.094653849
C 2.572579567 0.757185933 -0.267691346
C 1.019615696 2.628290413 0.383018440
H -3.322412273 2.380517384 -1.678907220
H -5.120362034 2.523455531 1.014951927
H -1.691334720 -6.064190377 -0.337906426
H 3.447382242 -3.005909225 0.370307141
H 4.458628813 1.152272542 -0.952173109
H 1.745142328 4.540087045 0.169736448

