16

C 3.665320785 -0.227836663 -0.013183542
C 1.783080092 1.639080996 -1.023277871
C -1.271672374 0.235364954 0.978762330
C -1.937099159 -2.475012780 1.383929891
C -3.109936135 1.708180230 -0.440941381
O -1.291591297 0.769893415 -2.173745706
H 3.324381424 -2.106828142 -0.794860798
H 3.607974872 -0.347614913 2.038373059
H 5.552144781 0.342480678 -0.649648290
H 2.216242396 2.028363482 -3.005036285
H 1.647099690 3.385918409 0.032051947
H -0.266456316 -3.685727427 1.423977043
H -2.822258818 -2.601510234 3.250556684
H -3.262891248 -3.225843961 -0.023877502
H -3.192856297 3.759962313 -0.275583825
H -4.931130189 0.838810782 -0.842380626

