8

C 2.047237556 0.684695982 1.502896296
C 1.325306807 2.887879785 3.128286415
H -0.639663241 3.416192842 2.774704257
H 1.552492819 2.459520257 5.132233256
H 2.485425114 4.530538977 2.659152683
N 2.808511892 -1.463336807 2.208325049
H 2.893206677 -1.559754092 4.133760024
H 1.887829728 0.989487282 -0.535880957

