18

C -2.977534874 -1.410687695 -1.659694318
C -2.588784989 1.034110008 -0.935027680
C 1.576966001 1.220843598 0.803626821
C 1.214559710 2.928707922 3.011896728
N 1.974143252 -1.195478919 1.064469744
C 1.928716126 -2.755521761 -1.255148930
O 2.583508722 -1.671372069 -3.256424869
H -2.726655986 -1.944958794 -3.621926512
H -0.436856076 -2.953000975 -1.100044348
H -4.130828284 -2.656351164 -0.508150624
H -2.016475819 2.437122997 -2.306354724
H -3.370460714 1.726436969 0.826162278
H 2.200462276 1.942151965 -1.009645179
H 0.121142840 4.588274154 2.477968595
H 0.258451984 1.981354390 4.574357607
H 3.054286648 3.588580934 3.683507887
H 1.477391626 -2.041961044 2.705579833
H 2.639913551 -4.661008277 -0.748703746

