13

C 2.991329553 -1.042726252 -0.437029137
C 0.602015929 0.240856933 -1.258218922
C -0.999863012 1.429712229 0.811348998
N -0.005636165 0.253873839 -3.569149466
C -2.795546689 -0.494381947 1.917537337
O -5.045721216 -0.245654192 1.952404107
H 3.882588455 -1.964063339 -2.042929113
H 4.297472573 0.337649272 0.373180810
H 2.607169624 -2.444047161 1.032412562
H 0.220507455 2.104620564 2.339872739
H -2.103684828 3.009556132 0.085438732
H -1.670461694 1.180755118 -3.850873087
H -1.903598302 -2.218593839 2.710840944

