11

O -3.662945947 1.518306880 1.837016787
C -1.603269968 0.901833677 0.743793878
C -1.684985656 -0.982157771 -1.159425174
N 0.834860101 -1.888584862 -0.182724857
C 2.607157605 0.096189120 -0.749885316
C 0.991386438 0.430977082 1.541334062
H -4.049144796 -0.434929141 0.468861120
H -1.949383342 -0.798707468 -3.179993592
H 2.272673114 1.294809330 -2.380469707
H 4.562858925 -0.382152851 -0.364899973
H 1.698539944 0.344813375 3.454141528

