16

C 4.025082914 -1.532504487 -0.892555462
C 3.592138627 1.060050846 -0.021428039
N 4.244919988 3.052540315 0.816300761
O 0.266018863 1.837250301 -0.389171956
C -1.526226646 0.601090227 1.061547358
C -2.968201176 -1.521531868 -0.135836613
C -4.247936256 0.959422892 0.410187713
H 2.813903338 -2.831363424 0.149936956
H 3.574984544 -1.676411837 -2.895719937
H 6.001628121 -2.016676659 -0.577065704
H 1.852396040 3.430195599 0.571142698
H -1.051632928 0.414269597 3.056076918
H -2.532868427 -1.927363271 -2.092789348
H -3.450667172 -3.149602790 1.004304511
H -4.639809669 2.178805429 -1.182600020
H -5.609633727 1.049754938 1.932975493

