10

C 2.030370994 -1.830629929 -1.088627794
O 0.285483666 -1.348908939 -3.041403044
H -0.874130727 -0.070370472 -2.489683159
C 3.382249354 0.498038454 -0.129439644
O 4.912451021 1.497234903 -2.068903852
H 5.713835871 3.005284708 -1.470205375
H 4.515221519 -0.047209081 1.523354225
H 1.979443102 1.895672677 0.509389774
H 1.114982746 -2.759584162 0.527934413
H 3.416207336 -3.142597254 -1.871091120

