16

C -3.836249574 -0.404608939 -0.551640913
C -2.146287116 0.003589119 1.471788909
C 1.125196074 -1.182600209 -0.304517082
O 0.009182595 -2.034029221 -2.554948611
C 2.465137185 1.339002824 -0.278859458
O 4.880384126 1.096528248 -1.422678026
H -4.538388352 1.252741835 -1.539997270
H -2.322301442 -1.382091471 -2.140906971
H -5.240244540 -1.885557937 -0.323053575
H -1.578359712 1.912847850 1.945323984
H -2.195667682 -1.259817971 3.081302532
H 1.341831026 -2.512962941 1.253297168
H 2.469448538 -2.346612372 -1.723461406
H 2.655267368 1.981077640 1.682020166
H 1.302836603 2.701046494 -1.319753677
H 5.544053012 2.744673675 -1.772236844

