14

C -2.914065946 -1.193469781 -0.948069379
N -0.733191419 0.103545105 -0.969639602
C -1.570511131 2.324036248 0.429566061
O -3.371219136 0.624945204 2.087422677
C 1.559946088 -1.236218882 -0.871740015
O 1.640011365 -3.404570573 -1.565257692
C 3.804043709 0.242028450 0.024395930
H -4.979943137 1.465763498 2.026930616
H -4.538597582 -0.326806194 -1.839306682
H -2.851480447 -3.229312799 -0.715972159
H -0.023982231 2.884442260 1.677330565
H 3.850427074 2.112703773 -0.836997060
H 5.509750420 -0.803042386 -0.437414736
H 3.691429260 0.493496346 2.069346634

