16

C 1.263819182 3.803362689 -1.894473419
C 2.486324473 1.642607055 -1.532765609
N 2.084754138 -0.036698160 0.465806038
C 1.741314499 -2.734062163 -0.036680567
C -0.311471387 -1.167957382 0.958236427
C -2.109121684 -1.066658103 3.072950793
C -2.966667475 -0.607621064 0.353985520
H -0.244499229 4.414154770 -0.654691742
H 1.796506615 5.042461703 -3.428146361
H 4.043888391 1.105646120 -2.758109268
H 2.781741049 -3.996335984 1.197440814
H 1.612665233 -3.314430353 -2.002468395
H -2.032951642 0.563870068 4.306664522
H -2.657587555 -2.817098921 3.978720146
H -4.077133058 -2.056898384 -0.569254522
H -3.470561812 1.304773421 -0.164148546

