16

C 1.577797197 3.643317645 -0.330967616
C 1.497828560 1.227757199 -1.369405475
N 3.489300223 -0.448748293 -0.235669710
C 1.874128987 -2.653738542 0.157289464
C -0.210062069 -0.783709883 0.090754872
C -2.043737519 -0.180658063 2.115159566
C -2.963461535 -1.049694202 -0.443127718
H 1.799935750 3.824215855 1.693888742
H 1.694591777 5.343280477 -1.468687755
H 1.255145150 1.068888018 -3.415327347
H 2.181086328 -3.665556793 1.928178045
H 1.896632166 -3.987391892 -1.437541157
H -2.365325404 1.776599503 2.607455747
H -2.159345218 -1.488911736 3.683744481
H -3.692372932 -2.952067810 -0.638809671
H -3.849708336 0.347770475 -1.645877339

