15

O 4.103611938 -0.512960865 -1.029320554
C 3.236976564 -1.782392893 0.935140421
C -0.386538471 2.875781626 0.303483591
C -1.301560679 0.188841749 0.468850765
O -3.424107090 -0.104969052 2.020966243
C -1.037321144 -1.600895111 -1.660412867
C 0.490707413 -2.055125726 0.747309600
H 5.901927682 -0.354384309 -0.828759555
H 0.079007749 3.588536734 2.180330287
H -1.886492331 4.058819627 -0.484555806
H 1.261404830 3.051051494 -0.911416082
H -4.813013878 0.769696902 1.246792089
H -2.567941895 -2.911130465 -2.004149684
H 0.027339235 -0.999954494 -3.300515222
H -0.273280759 -3.449935773 2.031246391

