15

O 4.290593119 -0.743359600 -0.754495454
C 2.631449619 -0.208815455 1.091599332
C -0.209303798 2.534698363 0.056370587
C -1.691625039 0.144282857 0.316980903
O -4.024929166 0.152107571 1.531188935
C -1.061355229 -1.878444592 -1.548281394
C 0.278414049 -1.769104566 0.970655027
H 5.846970611 0.125567293 -0.409729303
H 2.074453694 1.993061848 1.380548548
H -0.675149142 3.957641215 1.470653429
H 0.034894473 3.324861339 -1.825111721
H -5.281811428 0.700377780 0.344499057
H -2.460805744 -3.359527136 -1.728877928
H -0.017005929 -1.437463716 -3.253537557
H 0.048622729 -3.318069606 2.286958140

