10

C 1.997427550 -1.175591573 2.582996304
N 0.635102860 -0.323968430 0.381745389
C -1.667087380 -0.912380749 0.205996947
N -3.113516618 -0.327426477 -1.861724616
H -4.992232234 -0.228000521 -1.624904989
H -2.358238269 0.942896330 -3.058665597
H -2.675777208 -2.005147592 1.654119493
H 2.819000704 0.443805695 3.565571119
H 3.563475904 -2.395021051 2.012282933
H 0.816712041 -2.229510201 3.930675447

