14

C -1.993284647 -2.224089994 -0.190830705
C -1.493912311 0.543469057 -0.721750506
C -1.203137941 2.331250070 1.158974664
O -0.035680391 1.889769928 3.257177528
C 2.181121893 0.306387514 -1.523082747
O 2.413780249 0.495886056 -3.739890341
N 3.177570075 -0.182780056 0.608817204
H -1.193481422 -2.815871809 1.608474708
H -4.032190136 -2.542928668 -0.132332891
H -1.216521964 -3.427111774 -1.672648409
H -2.333101284 1.263927501 -2.446903520
H -1.766722774 4.290595387 0.841961012
H 5.046435268 -0.564249393 0.543536955
H 1.467420184 0.666886957 2.659715349

