10

C -4.552653441 0.290979707 0.151386602
C -1.764243699 -0.655832078 0.021201480
C -0.438205964 1.199526070 1.586781673
C 0.315762672 3.410091275 0.369457728
N 1.032487263 5.319408890 -0.442945945
H -1.688403736 -2.535199575 0.859248945
H -1.190287407 -0.718468846 -1.964587455
H -5.214141507 0.411588246 2.096480021
H -4.763666439 2.131934155 -0.746257854
H -5.716083530 -1.071975811 -0.860988192

