13

C 0.538395048 1.504533498 1.499493693
O 1.874343263 0.270454031 2.853010275
C -1.748718578 0.528012364 0.101782482
C -2.200359381 -2.268995443 0.566230884
H -2.602159960 -2.619953262 2.558749814
H -0.545488589 -3.389021604 0.066506965
H -3.805040690 -2.936253467 -0.544229861
C -4.037311237 2.165368361 0.775757670
H -5.662545397 1.640282749 -0.377859790
H -4.555566699 1.912912459 2.758100141
H -3.661691585 4.170543656 0.461186300
H -1.322367735 0.846220587 -1.905863290
H 0.934638416 3.547497230 1.199573842

