16

C 1.467917200 2.156289815 1.051660046
C 0.647417241 -0.363871112 -0.004913231
C 2.550363606 -1.653707117 -1.686952653
C -1.154443554 -1.927379031 1.511379956
O -5.663268614 1.221182936 0.500273131
C -3.775750767 1.211098204 -0.767195018
N -1.978034444 -0.665464050 -0.751986181
H 1.885033481 3.492773407 -0.465477282
H 3.184228733 1.927858077 2.172475016
H 0.015600766 2.980677337 2.261767089
H 4.286997178 -2.047109716 -0.643820809
H 1.798109367 -3.427150834 -2.414391330
H 3.028679159 -0.448886564 -3.293353973
H -1.055325321 -3.971250172 1.407902692
H -1.848549597 -1.170314079 3.286338440
H -3.368627736 2.687635806 -2.184148951

