13

C 3.921212832 -0.362556561 0.097939044
C 1.182955156 0.223787490 0.006651628
N 0.174498614 2.366652709 -0.295092281
C -2.279508726 2.757441269 -0.597136202
C -2.795668917 -1.608076071 -0.351539723
O -0.355651143 -1.813092439 0.506071245
H 4.350619381 -1.438887795 1.804652393
H 5.003036195 1.383462675 0.081538715
H 4.469995478 -1.516940135 -1.521820353
H -3.175207540 3.754217035 0.978631315
H -3.355231940 0.855673167 -1.280012812
H -3.026666298 -2.340842660 -2.266480009
H -4.132275020 -2.382744899 0.999686890

