11

C -3.505490376 0.286545182 -1.282918758
C -1.522617893 -1.531578993 -0.398193036
O -1.913781696 -3.648918888 0.365138192
C 1.176947698 -0.805258940 -0.651450106
O 1.945817580 0.247287992 1.437350861
C 4.562362683 0.858653284 1.452595736
O 5.452974449 1.910304656 3.185529753
H -3.461228058 1.990463588 -0.116310545
H -5.356275217 -0.601522483 -1.159856523
H -3.121012179 0.852983274 -3.229635375
H 5.437794430 0.200747534 -0.313206742

