10

C 1.186470443 0.412628691 -2.663887070
C 3.407957963 -0.517757368 -1.157832626
O 3.751591639 0.831539059 1.125028965
H 2.200159334 0.759887504 2.060355052
H 5.150054280 -0.236711082 -2.224600201
H 3.210312094 -2.549957221 -0.809069100
C -0.774160190 -1.007264861 -3.158935108
N -2.480759853 -2.413486567 -3.800886430
H -3.988548593 -2.501083876 -2.615839234
H 1.177012194 2.344762613 -3.341195924

