15

C -3.373536451 0.463394955 1.734972748
N -0.888917456 0.833202585 1.881750743
C 0.989393343 0.346460422 -1.518617589
C 3.434852319 -0.733838574 -0.546859491
O 4.576593209 0.960784534 1.150658036
C -0.886618925 -1.002826310 -2.617767321
N -3.036709777 -1.699402963 -2.653736009
H -4.233502754 -1.068584263 2.806846250
H -4.548529680 2.112728831 1.379921820
H -3.790230321 -0.920234035 -0.638394933
H -0.097192035 -0.735378701 2.671797672
H 1.125966137 2.289667894 -2.171748360
H 4.760455908 -1.013958819 -2.103445097
H 3.099834245 -2.592311312 0.318696642
H 3.254598808 1.751920908 2.119833313

