8

C -3.353217775 0.905253099 -0.565031664
C -2.262830892 0.618940467 2.082660472
H -3.690248597 0.987978222 3.525795861
H -0.705627099 1.934553641 2.399850001
H -1.540455755 -1.288164883 2.395211649
H -4.910054565 -0.410712244 -0.882626369
H -4.075868472 2.812199315 -0.877977245
H -1.925639274 0.536511520 -2.008198441

