11

O 4.208516134 1.576515547 -0.437422597
C 2.055987271 0.861468428 -0.227282444
C 1.083907863 -1.825797880 0.170068869
C -1.731699818 -1.507213885 0.294478894
C -2.267886363 0.931578363 0.012461629
N -0.067503965 2.362785498 -0.301605373
H 1.912501652 -2.600256118 1.895153815
H 1.718928709 -3.016018882 -1.392935646
H -3.088134062 -3.001912870 0.569290143
H -4.087171850 1.855579718 -0.000221948
H 0.016332563 4.242841705 -0.535798527

