11

O 4.142064520 1.034313494 0.001692306
C 1.771048924 0.641780661 -0.407571368
C 0.857035319 -1.861465818 -0.056524392
C -1.858955544 -1.545461299 0.306960989
C -2.404977584 0.925603144 0.049426826
N -0.165559170 2.284875170 -0.447810819
H 3.273338145 -1.113133876 1.091898495
H 1.675472794 -3.420547942 -1.101066784
H -3.233243221 -3.026985076 0.573939512
H -4.190319791 1.902618876 0.140200652
H 0.055927106 4.147547220 -0.148743612

