17

C 5.082076447 -0.866040696 1.210437764
O 2.956234713 0.448409276 0.334049835
C 0.748324289 -1.007893554 0.430934790
C -1.514787492 0.445564974 -0.467492581
C -3.925225552 -1.050190784 -0.560738490
C -1.314429808 2.853279561 -1.145591340
O -3.195621174 4.366719621 -2.024321830
H 4.854304809 -1.442188693 3.190974923
H 6.698330780 0.399548328 1.064489983
H 5.449686892 -2.560829382 0.070772946
H 0.417424854 -1.664940386 2.382556021
H 0.973829975 -2.724052908 -0.733164585
H -4.734190982 3.415348701 -2.162150441
H -5.615415476 0.135501300 -0.547621012
H -4.017993379 -2.250493645 -2.241999722
H -4.078258919 -2.290976869 1.083618263
H 0.466860675 3.847659306 -1.045369507

