12

N 3.638567233 -0.062955772 -0.295361396
C 1.035147128 0.072776962 -0.056855377
C -0.646620948 2.104878304 -0.379903964
C -3.330596185 1.238678738 0.145410211
C -2.928599301 -1.305935471 0.538346218
N -0.382905510 -1.941251926 0.480378774
H 4.451076164 1.638033710 -0.546892523
H 4.530996612 -1.051588709 1.066668270
H -0.080090921 4.060441655 -0.547315746
H -2.187234193 1.716567553 -2.079883992
H -4.278625862 -2.778103005 0.957232038
H 0.313215094 -3.705034664 0.662337990

