14

C 3.558539656 1.159457848 -1.159373641
C 1.778632886 -0.920409874 -0.812351026
O -2.062453952 -1.033136195 3.475593038
C -2.521136044 -1.753360936 0.937023911
C -0.901157420 -0.182545597 -0.863185509
O -1.570979556 2.410650390 -0.721461851
H 2.953840127 3.016338378 -0.474426250
H 5.488002715 0.690846058 -0.615905869
H 3.575247291 1.307067984 -3.244783438
H -0.484424943 -1.763574339 3.995040256
H -4.514044541 -1.362807459 0.584349824
H -2.152025213 -3.760375823 0.629046628
H -1.358179727 -0.842659946 -2.800257720
H -1.917517949 2.776159346 1.025840850

