19

C 4.060998217 0.244503764 1.491895822
C 1.836801491 0.356216039 -0.228999450
C -0.028750539 -1.741971897 -0.282341089
O -0.554045760 -2.568045037 2.182488184
C -2.343259072 -1.081320488 -1.851925838
C -3.236589397 1.555603913 -1.043098831
O -1.180361129 3.157280729 -1.155347429
H 5.021091262 2.059502729 1.572583291
H 3.558149919 -0.377907449 3.380743186
H 5.384913827 -1.116371941 0.643730423
H 2.259702828 1.073581323 -2.097897372
H 0.503257594 2.627828299 2.571481522
H 1.052731048 -3.214174524 -1.314276835
H -1.909834114 -3.767099903 2.115582336
H -3.811316055 -2.522951882 -1.635081277
H -1.800557697 -1.043575817 -3.845555984
H -3.999768369 1.429506212 0.891276344
H -4.779942726 2.182740292 -2.277993015
H -0.255558945 3.148052421 1.100111244

