16

C 3.538194411 -1.324230023 -0.460675016
C 1.212014117 -0.893544828 1.137336298
N 1.241741191 1.580270848 2.549703563
C -1.052174637 2.086465776 1.305512833
O -2.359872259 4.213151557 1.743477688
C -1.170770334 0.031966626 -0.163831035
C -2.655214588 -0.878838053 -2.362547147
H 3.879334026 0.312066764 -1.668681364
H 3.290451580 -2.986677180 -1.661093584
H 5.204911045 -1.626506040 0.716459387
H 0.891299682 -2.471263431 2.437892663
H 1.118687479 1.427366399 4.457528936
H -3.878690158 4.188554617 0.751317369
H -1.472659525 -1.085923426 -4.046988770
H -4.168450860 0.441306627 -2.841494851
H -3.533340177 -2.714652219 -2.001929955

