9

O 3.770759528 0.049247567 1.335242855
C 1.864554047 -0.099420287 -0.236507029
N 1.062831105 -1.184655872 -2.152706308
O -2.891429843 -2.073537479 1.702495499
C -2.853077965 -0.100102270 0.586935461
C -0.601486144 0.850208249 -0.824894102
H 5.026885748 -1.190614480 0.870630954
H -4.531380283 1.151986967 0.544647188
H -0.828367758 2.628480084 -1.827282619

