14

C 4.098020843 -0.237817119 -0.851034362
C 1.356547684 -0.040638315 -0.153267787
C -0.550298433 -0.594956573 -1.877339839
C -3.574834216 0.399560120 1.305748180
C -3.048933035 -0.370909642 -1.137339510
N 0.847932187 0.701403561 2.201053401
C -1.553427648 0.909509405 2.892404016
H 4.348227158 -0.917676687 -2.779091653
H 5.066432482 -1.520171567 0.439977620
H 5.004490170 1.606228977 -0.677054874
H -0.071135206 -1.191626542 -3.775890493
H -5.497047586 0.603339228 1.974784644
H -4.561132831 -0.792003702 -2.452885637
H -1.882822294 1.517349242 4.825164042

