16

C 2.944669135 2.215220848 -0.017218277
C 0.761111291 1.145013178 -1.403338872
N 3.053084669 -0.402441083 -0.954874850
C 1.499504369 -2.373430836 0.508342715
C -0.799166822 -0.649860015 0.140401209
C -2.886812241 0.064716411 1.899372250
C -3.441380699 -1.404926166 -0.482936840
H 2.889802997 2.381451041 2.020504356
H 4.125991700 3.546224273 -1.032414489
H 0.318673795 1.817284532 -3.288754399
H 2.234177485 -2.370749995 2.448392548
H 4.313259571 -0.858003936 -2.313702565
H -3.509159430 2.014335516 1.999249530
H -2.970468035 -0.941730596 3.679985022
H -3.881533591 -3.396119113 -0.315192277
H -4.423286248 -0.424746220 -1.991391330

