16

C 2.989483234 2.403484813 -0.011318666
C 0.790846774 1.286335628 -1.390936334
N 3.144231981 -0.128138417 -1.074140001
C 1.608032380 -2.201337711 0.445757990
C -0.743148612 -0.578908131 0.110268600
C -2.867141628 -0.010079176 1.881823951
C -3.350775172 -1.420583454 -0.545662803
H 2.980908148 2.485891102 2.035344054
H 4.078497364 3.831775440 -0.994137142
H 0.265749974 2.053289839 -3.219871425
H 2.398937717 -2.374417689 2.345708554
H 3.430470214 -2.054050227 -1.787974917
H -3.541438598 1.918367910 2.032782153
H -2.930312130 -1.070976524 3.630877673
H -3.730848909 -3.428520886 -0.444214726
H -4.347428824 -0.431387266 -2.037403610

