19

C -1.460842557 -3.132350857 -1.505720737
C -0.837822001 -0.368261607 -1.497422288
C -2.528942049 1.298294099 2.034045832
C -1.170889425 3.474449432 2.141645835
O 1.748582764 3.145247557 -0.891628514
C 1.646713751 0.738263047 -1.091141187
C 3.631733983 -0.837667044 0.251740206
H -3.447520722 -3.362184620 -1.009113429
H -1.217755558 -3.977130943 -3.373143596
H -0.331145987 -4.189525502 -0.149439240
H -2.069230283 0.861032430 -2.580603741
H -2.086673306 -0.267587638 3.279567193
H -4.391231259 1.277193587 1.181794562
H 0.399965032 3.694330726 3.426875275
H -1.822351039 5.180384384 1.228444038
H 1.505944821 0.045406623 -3.281641885
H 3.174060589 -0.888743110 2.267007489
H 3.764866247 -2.774760136 -0.442584479
H 5.459309926 0.080625656 0.035469385

