13

C -3.893694281 0.962123216 -0.577174250
C -1.618782749 -0.752977361 -0.592861736
O 0.587320587 0.819652190 -0.289596352
C 2.780583252 -0.328847192 -0.272492876
O 3.090566537 -2.723013785 -0.532532797
N 4.995436813 0.708414445 0.001859169
H -3.807098508 2.312085942 -2.131594874
H -4.012131789 2.007296286 1.194802624
H -5.609062784 -0.162080657 -0.784733056
H -1.668831484 -2.116892181 0.952729350
H -1.447877959 -1.793569962 -2.364384244
H 5.288171093 2.569805392 0.254735951
H 5.311621839 -1.773156951 -0.265183963

