19

C -4.045013137 -0.617465744 0.885541895
C -2.799373233 -0.631783707 -1.643187069
C -0.239767430 -0.308012943 -2.215281414
C 1.470293455 2.673780278 -1.289431132
C 3.396307859 1.947944183 0.404993177
C 1.965721045 -1.715394127 1.583325213
C 1.085742561 -2.271270711 -0.779200694
H -4.752270295 1.288892371 1.302692927
H -5.685931382 -1.868202881 0.906424370
H -2.803054609 -1.165477589 2.429835532
H -4.119778488 -0.638268775 -3.221228267
H 0.102212376 -0.422710664 -4.239485571
H 2.059165810 3.201627479 -3.180393893
H 0.021053987 3.922340262 -0.547404355
H 5.218321978 1.368820416 -0.322436788
H 3.441586604 2.696581241 2.306094867
H 0.896902380 -0.501184508 2.831458969
H 3.179142876 -3.048573515 2.563947336
H 1.641227668 -3.971443340 -1.772805311

