14

C 4.871314385 -0.077278441 0.680750631
N 2.456377189 -0.537973809 0.747826856
C 0.563116483 0.917166178 -0.680747664
C -1.770122731 -0.459827984 0.133044939
C -4.384791941 0.133331082 -0.696104806
N -1.175787368 -2.234780496 1.657764737
N 1.370167337 -2.359198420 2.092118722
H 5.545108915 1.453540277 -0.478452331
H 6.099436396 -1.255263221 1.799545087
H 0.943546509 0.789101479 -2.702239610
H 0.605676536 2.896209773 -0.106759019
H -5.691943810 -1.172834898 0.207255524
H -4.921657937 2.063564506 -0.188283883
H -4.587501143 -0.041909496 -2.745710454

