14

C 4.638886576 0.179889379 0.154732419
N 2.219341056 -0.456081224 1.058567770
C 0.452049625 1.063150639 -0.183935188
C -1.807642488 -0.414894038 0.145579814
C -4.387747397 0.007701938 -0.868090009
N -1.267990809 -2.289425801 1.698536674
N 1.222173039 -2.341632225 2.231287205
H 4.991254131 -0.689287846 -1.668329062
H 6.173626930 -0.016485120 1.501443776
H 2.462425258 1.731407440 -1.502569222
H 0.375940074 2.986656884 0.555583959
H -5.692756128 -1.341694380 -0.028136246
H -5.042320502 1.921581295 -0.457046099
H -4.414300525 -0.227042298 -2.917620843

