12

C 5.065175757 -1.304656296 0.469042761
C 2.965694606 -1.229741940 -0.367207990
C 0.383133468 -1.107279769 -1.324638147
C -1.400594025 0.124087014 0.553455788
C -3.620165193 2.843725729 -0.044904126
O -3.877737736 0.260163736 -0.456106924
H 6.939715570 -1.376039038 1.195900366
H -0.320613391 -3.007011200 -1.722812984
H 0.312587252 -0.044238526 -3.091484169
H -1.401074772 -0.687460330 2.445501097
H -0.719214966 2.185032700 0.718212089
H -4.119246455 3.118633089 1.999362970

