12

O -3.817502943 -2.885035048 2.584043515
C -1.992474030 -1.974796114 1.593132702
C -1.626752310 0.786765532 1.210369810
C 0.784235132 2.035700041 1.750470317
C -0.119142149 1.699272194 -1.129386730
C 1.383964965 0.001410114 -2.298927231
N 2.676251435 -1.489803423 -3.385173384
H -0.359161857 -3.172509861 1.024936994
H -3.348659076 1.893558489 1.389253892
H 2.265837465 0.644568914 2.183483333
H 4.576002556 -1.635716206 -3.218504926
H -0.774872503 3.311109386 -2.203634786

