12

O -4.079819322 -1.726820678 3.634966227
C -2.334398184 -1.642909317 2.198618187
C -1.371065732 0.738861334 1.038412064
C 1.407455054 0.994586878 0.599520507
C -0.361122467 0.735059337 -1.688501926
C 1.502596831 -0.670239426 -2.964663685
N 3.722973135 -0.608121766 -3.295120621
H -1.268608372 -3.371033263 1.657033508
H -2.565644215 2.373373502 1.360150031
H 2.161214686 -0.853865682 1.114832834
H 3.751006353 1.027479999 -1.277388833
H -0.856433290 2.414285826 -2.745143574

