15

C -3.372921666 -2.019577125 0.473473262
C -1.562851825 -0.102177151 -0.584451680
C -1.048457830 2.440686585 0.446080189
N 0.587389807 0.623040643 0.977430205
C 3.096554002 0.456824113 0.595097773
C 4.089405298 -1.909119458 -0.224760643
N 4.900640270 -3.788066433 -0.959756334
H -3.644877614 -1.735931274 2.495764014
H -2.672189714 -3.934075064 0.157742696
H -5.202503723 -1.848992398 -0.462402528
H -1.126016460 -0.310152472 -2.592466024
H 1.046590799 3.589648460 -1.634023409
H -1.904237615 3.957259490 1.500999615
H 2.527100038 2.903558767 -1.797947909
H 4.296939802 1.630827957 1.762825252

