11

C -1.594036010 -3.504518528 -2.527436788
C -1.749444271 -0.794331807 -1.753210438
C -0.267210222 0.467382901 -0.152258295
C 1.896794494 -0.609377716 1.215820252
O 3.193620615 0.601647508 2.645691993
H 2.315452848 -2.631030969 0.884202287
H -0.617806197 2.451309681 0.226261085
H -3.283695639 0.256632386 -2.628062039
H -3.365610391 -4.464180659 -2.074672222
H -0.056305051 -4.534483837 -1.635027345
H -1.357525447 -3.635452624 -4.574931403

