15

C -1.619336760 -2.928124658 0.176747823
N -0.760542785 0.155677339 1.695374822
C 1.380220699 -1.463495147 1.638192541
C 3.127652317 -0.571070605 -0.109734998
C 2.017925239 1.538341095 -1.238260863
C -0.346568760 1.872779911 -0.125073470
N -2.280490798 3.543557907 -0.809514566
H -3.595866660 -2.527509013 0.549395484
H -1.141044319 -2.688902225 -1.801835151
H -1.155628299 -4.805176371 0.874940248
H 1.723412424 -2.697741967 3.224434868
H 4.959112176 -1.370907146 -0.513476420
H 2.826034302 2.696830892 -2.714728904
H -3.343671484 4.054549356 0.687467095
H -1.652866132 5.079135542 -1.742739466

