9

C 3.418454353 0.335342332 0.786670309
C 1.793015894 -1.269963079 -0.876985895
C 1.045571745 -0.651072028 -3.182946176
H 1.590326780 1.130466293 -4.040871802
H -0.134793938 -1.896366377 -4.299080900
H 1.198242927 -3.075897670 -0.096000355
H 2.450580001 0.777817074 2.557139635
H 3.921359664 2.108410032 -0.136928912
H 5.162445006 -0.651474445 1.288571722

