15

C 3.921804373 0.500321942 -0.218979838
C 1.860470859 -1.494380774 -0.591095560
C -0.678082980 -0.476020688 -1.343179875
C -4.304903486 -0.179076797 0.089028267
O -1.528948457 1.411223678 0.798438578
H 3.376411480 1.863396665 1.233828095
H 4.269827769 1.537764199 -1.971497238
H 5.705117563 -0.347735761 0.382703045
H 2.416019801 -2.811424962 -2.088522913
H 1.686749489 -2.634009971 1.128202042
H -0.509750939 0.718329989 -3.029997054
H -5.006887835 -0.311505761 -1.826765628
H -4.239447814 -1.998889688 1.006100847
H -5.413285419 1.188920190 1.194935245
H -1.488734764 3.149262432 0.236382553

