10

O -2.226119485 -3.363128898 0.304805889
C -1.519457062 -0.857070638 -0.106516341
C 0.801052655 3.718486302 -0.623217106
O 2.327746556 1.899453603 0.055681801
C 1.269199724 -0.534468405 0.366179507
O 2.659023803 -2.176576062 0.980745503
H -0.741713970 -4.308100733 0.771010508
H -1.933815684 -0.258505728 -2.042412651
H -2.558723736 0.433804773 1.129210041
H 2.087117032 5.370354224 -0.721075553

