10

N 3.764949319 -0.152305708 -0.349012573
C 1.096225041 0.056184600 -0.226864399
N 1.310954394 -1.495735859 1.597294446
N -2.968455741 -0.902330883 1.469458650
C -2.881343373 0.641539494 -0.388705269
N -0.606953443 1.291838700 -1.471253247
H 4.848404177 1.179053268 0.463835129
H 4.555791784 -1.316555240 -1.624326997
H -4.732054741 -1.254518650 2.122991480
H -4.542663933 1.527426434 -1.228907928

