13

C -4.170552784 0.590784946 -0.009475465
O -2.226774218 -1.276865001 0.032831251
C 0.116471399 -0.423222061 -0.021741979
N 0.743781501 1.908002252 -0.108471092
N 3.430643918 1.794535385 -0.132205807
C 4.575192544 -0.382138697 -0.069099121
C 2.346588089 -2.162570981 0.012433056
H -5.945302472 -0.441588971 0.048853256
H -4.001939362 1.836736825 1.624007822
H -4.045004161 1.716413521 -1.731829227
H 4.292384315 3.489369311 -0.197908409
H 2.366568484 -3.450826438 -1.601072802
H 2.399379459 -3.341769323 1.706539060

