13

C -4.238950551 0.657599161 0.032261877
O -2.386339347 -1.260457322 0.363861191
C 0.008622631 -0.511693653 0.182219960
N 0.736125993 1.792061960 -0.261739087
N 3.297330732 1.661487082 -0.302483869
C 4.365744711 -0.591956614 0.255130677
C 2.152944243 -2.145235748 0.485468317
H -6.059687481 -0.274131212 0.228963261
H -4.024898136 2.127826627 1.463414871
H -4.072920726 1.516231469 -1.836628543
H 4.241710062 3.256948078 -0.696668266
H 3.781368488 -2.212385087 -1.434843781
H 2.138701151 -4.100540623 1.066324245

