14

C -2.140445765 -1.965561269 1.864536151
C -0.627022334 -0.213563335 0.220213451
C -1.892380339 2.117118381 -0.575818447
O -4.116502005 2.537978398 -0.263271693
C 2.086835558 -0.116643269 0.538013153
O 3.539475891 -0.806363674 2.112383880
N 2.953118762 0.611877332 -2.138822301
H -2.459466495 -1.155803495 3.737415840
H -3.987859259 -2.279001240 1.013066547
H -1.185090735 -3.775523527 2.096172486
H 0.632047324 -0.128515814 -2.332829957
H -0.705663495 3.545597488 -1.559279733
H 4.210416915 -0.681309026 -2.784436895
H 3.691269861 2.372525638 -2.325677891

