14

O 2.936991216 2.639302829 -1.565387460
C 1.284384580 1.532429635 0.205351039
C 1.965828929 -1.285732239 0.548453437
C -0.615374667 -2.016702341 -0.508446725
C -2.650462078 -0.829052198 1.047105050
C -1.285577376 0.748352805 -0.858640302
H 1.204872407 2.670474542 1.937191604
H 3.519476503 -1.751941242 -0.717569582
H 2.404574902 -1.936169092 2.457205948
H -0.993243623 -3.588003434 -1.758784110
H -4.569078865 -1.340129196 0.552162705
H -2.351836085 -0.506647517 3.052777589
H 2.346982305 4.312728369 -1.935559920
H -2.237787844 1.662950580 -2.420793514

