14

O 2.214011348 2.644313816 -2.096852315
C 2.169277713 1.812841105 0.228559767
C 1.956846797 -0.941151943 0.781203974
C -0.445719931 -1.523054004 -0.614667116
C -2.983475379 -1.213910306 0.609113475
C -1.987312583 0.901374852 -0.931009140
H 2.756705882 3.186435820 1.642527516
H 3.620818434 -1.977339894 0.113352311
H 1.782630791 -1.259149310 2.813480776
H -0.370902915 -2.800697346 -2.217072553
H -4.455107743 -2.393399439 -0.197308516
H -3.125648149 -0.991894717 2.643801833
H 0.607962727 1.976097739 -2.926037588
H -1.373446125 2.613560035 0.101340041

