9

C 3.028240553 0.372574680 -2.124937520
C 4.339198349 1.802625095 -0.545175707
H 3.714495710 3.688517986 -0.035298534
H 6.084611967 1.142650038 0.296281069
C 0.608177891 1.123564087 -3.375522251
H -0.911304739 -0.187124120 -2.885635376
H 0.797785413 1.076406218 -5.432197212
H 0.030479223 3.023312582 -2.821663309
H 3.734384530 -1.504219368 -2.576839368

