18

C -3.677645201 0.838134109 2.444251270
C -2.235788401 -1.053532236 0.889247194
C 0.354214063 -1.663599361 1.458486314
C 2.039781774 -0.805780127 -1.196278991
C 4.423162396 0.345098516 -1.102805748
C 0.442823623 1.245137766 -2.327818346
H -2.486512331 2.455518328 2.926501799
H -4.323359440 0.009209410 4.228152259
H -5.344295014 1.546606095 1.455356833
H -3.365661830 -2.536141263 0.021894197
H -1.641532198 0.412585001 -1.420119186
H 0.780255218 -3.660435446 1.674306682
H 1.142419170 -0.590840693 3.027929164
H 2.023597347 -2.501356696 -2.366527969
H 4.648965128 2.121211263 -0.108557188
H 6.125439821 -0.527450076 -1.835164176
H 0.484172267 1.438384466 -4.375274751
H 0.593422834 3.072844855 -1.387973319

