14

C -4.101585622 -0.283796688 -1.279438014
C -1.480440378 0.284518337 -0.406737621
C 0.587738594 -1.473864206 -0.242782488
C 2.577913451 -0.131525430 0.653049286
N 5.084799089 -0.712892869 1.096312422
O 1.934195972 2.287859709 1.060229897
C -0.566754867 2.517828399 0.404967987
H -5.285583548 1.401506215 -1.225211492
H -4.101683831 -1.001504050 -3.214755275
H -4.984801453 -1.721654318 -0.090147722
H 0.569626590 -3.452397160 -0.730184279
H 5.854233659 0.296711266 2.516223644
H 5.398799459 -2.577041267 1.302686332
H -1.383177913 4.365982685 0.639606323

