11

C -3.585972980 0.406402025 -2.340975168
C -2.789196397 -1.108754908 -0.016769411
C -0.116543983 -2.041765911 -0.221293449
N 0.669791334 -4.290254159 -0.083631606
H -0.798024728 -5.507298009 0.213017847
H 1.308488887 -0.575690381 -0.545638614
H -2.920561672 0.093656754 1.663141821
H -4.058856269 -2.711133020 0.283994335
H -2.322994518 2.008654640 -2.651256708
H -3.545669355 -0.763804793 -4.038971078
H -5.496856119 1.146323798 -2.120387853

