18

C -4.028678949 -0.672768654 -2.350470399
C -2.361823817 0.138857208 -0.130539900
C 0.388735769 -0.162994321 -0.683417582
C 2.067190381 2.594080512 2.235171783
N 1.603243361 -2.330733532 -0.290823692
C 4.211861875 -1.966594514 1.130767572
O 5.856247824 -3.431288182 1.003462714
H -3.570898861 0.405406649 -4.048677883
H -3.771019686 -2.671861696 -2.785940531
H -6.019723968 -0.357782962 -1.917908083
H -2.731822025 2.122526040 0.315991045
H -2.839870159 -0.953867683 1.559723516
H 1.180808087 1.032705469 -2.148639844
H 0.614838060 2.226804265 3.651795486
H 3.704232759 3.403734161 3.209445352
H 1.405594921 4.022668524 0.911331346
H 0.598781228 -3.590013044 0.757680266
H 3.465844111 0.470544243 1.821434408

