14

C -1.983172061 -2.076293116 0.943415778
C -1.362217826 0.249865749 -0.565320981
C 1.233456669 0.346953546 -1.746852020
O 3.157003714 0.332147580 0.099756053
H 2.921322533 1.797249240 1.145218516
H 1.370434185 2.027140262 -2.951302036
H 1.542345028 -1.318357094 -2.926010584
C -3.365203817 1.826097704 -1.621936531
H -5.324732645 1.284560533 -1.332294958
H -3.007282943 2.966400456 -3.292559457
O -2.057544859 2.592981730 0.590960728
H -2.051639673 -3.734597804 -0.283131902
H -0.535686579 -2.401025675 2.374213352
H -3.806182520 -1.867978079 1.877997615

