12

C 2.820577699 0.278256125 -1.567251977
C 0.242444416 0.206204137 -0.474578449
O -1.040539329 2.531653144 0.268458122
C -0.950894350 -1.157591497 1.807357101
C -2.840297842 0.476773120 0.347633904
O -1.920524295 -0.529674775 -2.020054942
H 3.390598202 -1.624096696 -2.112562667
H 4.146245369 1.004774731 -0.169076801
H 2.831999733 1.497468586 -3.225774608
H -1.173097399 -3.195053538 1.647878295
H -0.394020955 -0.493665760 3.671274802
H -4.840385824 0.877367563 0.582970229

