13

C 3.974183235 -0.294971697 0.964708815
C 1.517120018 0.196487808 0.335307542
C -0.106720242 2.225760304 -0.099900655
C -2.687295656 1.301906575 -0.726019719
C -2.380806701 -1.462470216 -0.622507627
N -0.092729069 -1.992189853 -0.044865254
H 4.643745326 -2.216721517 1.155452554
H -3.433960387 1.792999926 -2.611092733
H 5.295794721 1.222023354 1.287378228
H 0.406751945 4.189119853 0.011912267
H -4.217701696 1.816794261 0.596107964
H -3.779550364 -2.916671841 -0.957136021
H 0.596040293 -3.763358982 0.147809143

