13

C 3.005560136 -0.056655898 -0.268633828
C 1.015171116 0.060642370 1.472911671
C -0.635397600 2.205806138 1.320816686
C -2.570960374 1.396479544 -0.164323063
C -2.082364277 -1.201949152 -0.770457309
N -0.510376400 -2.085216591 1.216211085
H 4.014402276 -1.825197439 -0.541698838
H 0.603304722 -0.567181700 -2.125525886
H 4.106346901 1.623688950 -0.677512075
H -0.128762971 4.129422498 1.767619014
H -4.061124262 2.517358897 -0.994832693
H -3.505053830 -2.447821813 -1.566006270
H 0.484126007 -3.650665978 0.768587916

