13

C -1.832537777 -0.537879474 1.217173920
N -0.795292506 0.890294008 -0.924256600
C -2.297167839 2.542879629 -2.022750296
C 1.610892159 0.387933675 -1.577145374
C 3.070835434 -1.404465507 -0.290935771
C 4.368914481 -2.939056441 0.786840082
H -0.708905207 -0.143748254 2.892846136
H -1.719269880 -2.547693442 0.801135898
H -3.782789241 0.022217416 1.514713320
H -4.192505562 2.775176670 -1.328508930
H -1.586559932 3.622427328 -3.598642120
H 2.371468431 1.434990537 -3.153288531
H 5.517744698 -4.286020511 1.737642705

