13

C -2.450663886 -0.255616091 1.824352353
N -0.906869533 0.646366856 -0.228013674
C -1.184317100 2.657452704 -1.751971515
C 0.665070061 -0.674442177 -1.814471372
C 3.055084340 -1.554428409 -0.978646717
C 5.090517287 -2.284485263 -0.274325419
H -1.434889928 -1.776954507 2.773309677
H -4.259776694 -0.996604633 1.143023296
H -2.802118514 1.265555973 3.168080797
H -3.047839186 3.276682242 -2.385937724
H 0.435854824 3.838294579 -2.129981331
H -0.037467619 -1.280755702 -3.633115184
H 6.883107804 -2.945848097 0.351455913

