10

N 3.444990454 -0.301551100 0.425856963
C 0.838647491 -0.343972617 0.141146252
N -0.424561216 -2.559703653 -0.090809391
N -2.828955554 -2.111144730 -0.213431602
N -3.130062909 0.358574965 -0.080386984
C -0.892821328 1.584295379 0.156991965
H 4.319220202 1.091069415 -0.529755920
H 4.209278374 -2.001836243 0.030344920
H -4.881652699 1.087174652 -0.155565146
H -0.737757999 3.603364281 0.327835452

