15

C -3.594814536 -1.686168152 0.295700697
C -1.586255346 0.108742381 -0.609487036
C -1.516368361 2.777924332 0.236177347
N 0.603160706 0.415447199 1.055411020
C 3.082752255 0.719290555 -0.074082480
C 4.452752313 -1.693798035 -0.082717829
N 5.522148894 -3.576676680 -0.116853520
H -4.103387438 -1.256096042 2.244518595
H -2.950391112 -3.642401109 0.179298613
H -5.284294263 -1.481586421 -0.870167064
H -0.952207842 -0.265504801 -2.532549479
H -0.433183223 3.930123515 -1.104147473
H -0.117845816 1.935664252 2.364113371
H 2.968994843 1.418462747 -2.019873830
H 4.177049473 2.086926302 1.015867613

