13

C 3.422722450 -0.231213245 -0.618025310
C 1.868093258 -1.683915183 1.337842514
C -0.904825492 -1.745998771 0.743623217
C -2.687755823 -0.684671056 2.151223440
H -2.188539503 0.305141769 3.864679559
H -4.656060917 -0.788602308 1.610163198
O -1.562077453 -2.973909963 -1.428195913
H -0.091442770 -3.705990110 -2.191131281
H 2.113461553 -0.834901109 3.198774768
H 2.563235778 -3.631408194 1.480728977
H 2.775228297 1.721373259 -0.753780797
H 3.285538954 -1.063664116 -2.502662232
H 5.417772026 -0.219108850 -0.099300006

