9

O 4.106484416 0.044361982 -0.755717748
C 1.621533699 -0.045921327 -0.282108634
N 0.519445782 -2.213480070 0.225580349
O -1.917246641 -1.867109674 0.628280230
C -2.360049836 0.835366284 0.333866532
C -0.016343126 2.091282291 -0.276418215
H 4.791533720 -1.637950165 -0.648866170
H -3.784702419 1.073493318 -1.148413816
H -3.170974572 1.526077169 2.108686404

