9

O 4.054681694 0.151750923 -0.421987862
C 1.548715238 -0.078238365 -0.239004510
N 0.488306421 -2.269012809 0.099840392
O -2.042774514 -1.928380359 0.194708687
C -2.440659128 0.677409085 -0.014131750
C -0.178386650 2.042787572 -0.509783555
H 4.807340996 -1.501528077 -0.297472202
H -4.345538191 1.157879397 -0.589967923
H -2.048633270 1.628051213 1.911935282

