17

C 4.629541899 -1.075245850 0.970471724
C 2.376571768 -0.410202510 -0.692029914
C 0.012292158 -0.202054827 0.887174316
C -0.648900204 2.231140184 2.127918449
N -2.117670370 1.224337569 -0.191431883
C -4.672284254 0.215151820 -0.088143743
H 4.869252335 0.355618678 2.436444415
H 4.367688673 -2.903402827 1.895323928
H 6.370076017 -1.171790333 -0.130058624
H 2.710550947 1.421432281 -1.590686962
H 2.139788518 -1.826327835 -2.185338590
H -0.642320631 -2.017515717 1.624668811
H -1.730557913 2.190108542 -1.790162842
H -1.927641797 1.872399717 3.720089923
H -5.037496088 -1.056554758 -1.672561368
H -6.024101746 1.770050431 -0.121101795
H -4.893736780 -0.811340381 1.680714403

