17

C 4.620139699 -1.062109759 0.978704920
C 2.401553778 -0.517685407 -0.768880805
C -0.017150909 -0.173583495 0.700482206
C -0.593540677 2.255376489 1.977072951
N -2.114532310 0.993846275 -0.639845241
C -4.660876185 0.084026086 -0.182072939
H 4.867789990 0.477778700 2.329445608
H 4.330122070 -2.805292574 2.048254966
H 6.374806984 -1.264675833 -0.083940992
H 2.748836193 1.212868670 -1.839981182
H 2.159583040 -2.048394824 -2.139825689
H -0.645649705 -1.881636509 1.666696509
H -1.656023071 3.064935879 -0.303727138
H -1.976643511 1.955995532 3.489670364
H -5.134564044 -1.323484526 -1.615106305
H -5.994194278 1.646179507 -0.346196768
H -4.863010192 -0.765702135 1.693631059

