14

C -0.877628478 3.835474333 -0.153022803
C 0.277402743 1.305214899 0.181938957
C 0.227521419 -3.099785433 -0.466742700
C -1.268190931 -0.974247226 0.913742580
C 2.733368615 0.673241558 -0.379415696
C 2.798553470 -1.886501364 -0.598349898
H -2.750554105 3.696316375 -1.013267652
H 0.349249960 5.044431950 -1.280547794
H -1.137964084 4.741535346 1.689988101
H 0.297619033 -4.900931987 0.542728171
H -0.627654693 -3.479308957 -2.312273591
H -3.237637515 -0.770147961 0.323843046
H -1.282293523 -1.342700036 2.948728418
H 4.505500560 -3.030059868 -0.593328858

