16

C 2.398616066 -1.332760133 1.858745180
C 1.851060136 0.273826172 -0.423076836
C -0.548173077 0.086733459 -1.903617199
C -2.687347302 -1.630273852 -1.173849435
C 0.013092382 2.465860723 -0.421340612
C -2.257465638 3.210023419 1.643705269
N -0.465149131 3.232883342 2.982872575
H 0.708915506 -1.754459566 2.951308839
H 3.245853987 -3.118718316 1.266668436
H 3.718502723 -0.365971882 3.111644617
H 3.520872142 0.695429267 -1.536820659
H -0.371286756 0.383566933 -3.926365341
H -4.461331594 -0.921850601 -1.949199566
H -2.368911556 -3.532174877 -1.906643217
H -2.919921698 -1.760729942 0.867836635
H 0.537294113 4.168332922 -1.409187763

