16

C 3.436775795 0.230051762 0.062861588
C 0.656534811 0.978571865 0.221246867
C -0.765731180 0.476774878 -2.215438941
C -4.084076327 -0.831888299 -0.310265213
O -3.309705849 0.032076249 1.955547345
C -0.707299884 -0.419305698 2.361804598
H 4.419510651 1.299296334 -1.399581699
H 4.404440936 0.578147421 1.851980848
H 3.631580330 -1.777499485 -0.382788669
H 0.521599786 2.996491907 0.645638499
H -0.738330907 2.086150966 -3.506403019
H -0.182416416 -1.223065613 -3.212819590
H -3.311887103 -2.736504370 -0.670628180
H -3.244554744 0.569153005 -2.049924784
H -0.196698153 0.288379369 4.229785947
H -0.317744711 -2.457584195 2.262641711

