15

C -1.756854038 2.387781681 -0.754113994
C -0.395237958 0.081161583 0.216632156
C -2.032498051 -1.707455671 1.708401442
C 1.575828253 -1.146233431 -1.527001018
C 3.296410964 -0.151061097 0.230021621
O 5.601194815 0.243322855 -0.291610328
O 1.795951225 0.973167664 1.878301067
H -0.446079263 3.662268329 -1.700597496
H -3.184223688 1.800465100 -2.122206922
H -2.695532896 3.394354354 0.781873334
H -0.915783900 -3.258224172 2.475867768
H -2.966045452 -0.721405934 3.260802382
H -3.484422802 -2.496298561 0.472264215
H 1.507473685 -3.067484061 -2.211774441
H 4.176409744 -0.028524887 -2.308918647

