18

C -3.991527652 0.133061097 -1.588969825
C -3.140046785 2.069584040 0.361979817
C -1.009927221 1.100078779 2.043908161
N 2.669610673 -1.491986170 1.099502223
C 1.416768191 0.683196994 0.567864949
O 2.182122541 2.219001718 -0.959776271
C 5.051104346 -2.148164748 -0.059014068
H -5.529872923 0.869337796 -2.747710370
H -2.443145006 -0.368040717 -2.858624122
H -4.663085520 -1.599600290 -0.684788427
H -2.483651304 3.779095620 -0.587723854
H -4.734355370 2.612378144 1.558269655
H -0.573809234 2.497681802 3.502713934
H -1.588690731 -0.632145703 3.014678915
H 1.914301106 -2.669934137 2.378009737
H 5.493216847 -0.691924033 -1.440824103
H 4.929838013 -3.969010847 -1.021456194
H 6.571321229 -2.228127602 1.335189565

