18

C -3.425270557 -0.327100310 -1.902572747
C -2.062482997 1.596317004 -0.245503032
C -0.714572136 0.439349230 2.004659230
N 3.464118942 -0.502754851 3.714556938
C 2.478481939 0.763706036 1.736159213
O 3.030655113 2.978147334 1.102995590
C 3.007538075 -1.181757731 -0.675008811
H -4.367789697 0.606188387 -3.481096241
H -2.126610910 -1.722986008 -2.692271550
H -4.864501828 -1.352128635 -0.834833192
H -0.702399730 2.704013628 -1.335066374
H -3.422262019 2.977026368 0.468499729
H -1.064188080 1.459380476 3.749815637
H -1.139058046 -1.556074889 2.271408774
H 2.668478368 -2.253991225 3.763857662
H 2.079445103 -0.252897115 -2.248747859
H 2.279025901 -3.071208919 -0.343245167
H 5.040898654 -1.185615985 -0.930132761

