10

O 3.855416537 -0.135739651 -2.471959644
C 2.328704155 0.209987520 -0.548808970
N 2.023628508 -0.307329372 1.720983389
N -2.576370962 -1.990985058 -1.322002905
C -2.453806463 0.138486746 -0.251534396
C 0.026062177 1.333195526 0.303597144
H 5.200196122 -1.258085054 -1.961645227
H -4.397018110 -2.572190756 -1.516911884
H -4.120144245 1.216890404 0.338943243
H -0.023563279 3.311383378 0.852977435

