10

O 4.280790354 0.900718418 -1.449764000
C 2.080515274 -0.204997962 -0.749164423
N 1.727459216 -2.470215068 -0.175540042
N -2.860532934 -1.978400654 0.281411533
C -2.481378266 0.344579143 -0.319531201
C -0.044891068 1.409037341 -0.291436435
H 5.601253302 -0.351129463 -1.339127735
H -4.597346748 -2.591441188 -0.296501034
H -4.018055268 1.591091855 -0.924207241
H 0.298990200 3.309725993 0.397488886

