14

C 2.114540322 -1.460692173 -0.403658502
C 0.374810188 0.029301867 1.343826728
O 1.339322320 2.452425300 1.751208311
H -0.013519932 3.611455143 1.336536184
C -2.306878631 0.198244195 0.310635864
C -3.678086546 -2.213773280 -0.294262181
H -3.021880094 -2.916736073 -2.121958423
H -3.287179425 -3.674727350 1.106717878
H -5.698450005 -1.854639976 -0.411827315
O -3.256291436 2.251439547 0.000607982
H 0.229024829 -0.980521608 3.159244419
H 2.171470230 -0.585522947 -2.270723276
H 1.515878355 -3.424988194 -0.593222504
H 4.020197537 -1.436366069 0.374927559

