12

C -2.685927872 0.518057683 0.395913005
C -0.087070870 0.457157555 -0.767088551
C 1.537289217 -1.964287272 -0.112530810
C 2.743300184 0.146424144 1.025691959
N 3.927597121 1.823118532 2.069525288
H -3.601530887 2.334845142 0.060151211
H -3.924423666 -0.960352694 -0.359667832
H -2.591665763 0.257815335 2.444672641
H 0.042344227 0.913445723 -2.764387959
H 1.861351603 2.404772454 0.745643769
H 0.626182030 -3.305423597 1.149122614
H 2.507346939 -2.861380609 -1.683040750

