11

N 4.434864676 0.405094467 0.071445386
C 2.069777510 0.157125077 0.033531168
C 0.842307739 -2.335908963 0.046943443
N -1.540066755 -2.682487852 0.009347171
C -3.056492545 -0.530862940 -0.046442760
C -2.066541052 1.781386709 -0.060333097
O 0.460283899 2.192284278 -0.021500605
H 4.957237965 2.254405340 0.055240871
H 2.109132436 -3.948930825 0.092153723
H -5.077673877 -0.814415343 -0.078758834
H -3.132829997 3.522310034 -0.101626466

