15

C -2.636151654 1.492129354 0.760576007
C -1.069354289 -0.338425439 -0.748682014
N 0.002539168 0.766662210 -2.985553133
C 2.214491074 -0.412072356 -1.885320776
C 1.496030202 -1.001513329 1.508414787
O 2.629493828 1.039940739 2.684511862
H -3.426784454 0.609569296 2.449074532
H -1.497579003 3.112295949 1.320916766
H -4.172068231 2.160265666 -0.443065206
H -1.902609408 -2.200326178 -1.013521574
H -0.604784358 -0.214485427 -4.514925285
H 2.378371752 -2.380060940 -2.592547585
H 2.684752708 -2.677731090 1.288467882
H 0.016949332 -1.611629984 2.830356692
H 3.813620047 1.655927659 1.434866798

