17

O 3.489302339 -3.495356776 1.853184245
C 4.351540604 -1.567676485 0.396530587
C 3.189662131 0.596693383 -0.113431453
C 0.617716453 1.381619644 0.791300459
C -1.335876197 1.422639873 -1.297371534
C -2.662139981 -0.963978398 -2.028940774
C -4.080280604 1.100101456 -0.687979475
H 6.207618813 -1.999293258 -0.349858887
H 4.192016293 1.898195386 -1.336412407
H 1.845016168 -3.079029834 2.500246161
H 0.735424659 3.259439436 1.651623052
H -0.065046622 0.138256181 2.302952782
H -0.897349754 2.709366542 -2.832150609
H -3.067501333 -1.296161467 -4.004808004
H -2.211568197 -2.660525247 -0.974119916
H -5.452727783 2.179961941 -1.751255611
H -4.587775758 0.791695242 1.271324645

