11

C 0.249568967 1.867355679 3.006704176
N 0.205847602 -0.084577584 1.655222167
C 2.092077129 -0.323911303 -0.317172748
C 0.834236265 -0.639190167 -2.881451825
H -0.270601676 1.034068661 -3.366236250
H 2.250796719 -0.928667297 -4.352105065
H -0.436256901 -2.261843661 -2.865546586
H 3.211100261 -2.008572815 0.108682401
H 3.388873846 1.302107887 -0.339327689
H -1.151132036 2.103164171 4.494997046
H 1.650281403 3.380088415 2.764327847

