13

N 3.037073965 -1.006718844 -0.258400470
C 3.513974982 1.307999996 0.296808832
O 1.767764845 2.867828562 -0.080750681
C -0.508482044 0.164138493 -1.505807872
C -2.232297680 -1.844620932 -0.635375113
C -2.939140118 0.922676222 -0.391030785
H 4.362580724 -2.364811020 -0.016323511
H 5.325422149 1.959378954 1.055225940
H -0.001491788 0.467090164 -3.449429553
H -3.107272075 -3.018457744 -2.070005883
H -1.798362118 -2.816401178 1.107442607
H -2.929772991 1.692285744 1.501411916
H -4.331158793 1.759169482 -1.639874076

