14

O -0.074234300 0.047165939 5.121129489
C -0.028385708 -0.405403323 2.488029573
C -0.093535623 2.029330473 0.966970061
C -0.178293884 1.650706421 -1.850542672
C -0.222792890 -0.523781248 -2.999093852
C -0.272192296 -2.692982295 -4.153906545
H 1.460352268 0.886065935 5.593769873
H -1.699685590 -1.541162664 2.076435714
H 1.567771708 3.179013108 1.430081954
H -1.736665867 3.138144152 1.556556864
H -0.214727520 3.344572297 -3.011696436
H 1.622801667 -1.539009888 1.952594232
H -2.046726631 -3.618585892 -4.590736071
H 1.458105251 -3.632955653 -4.718547527

