19

C -1.540793260 -2.966039481 -2.364621405
C -1.408273797 -0.526007232 -0.901804613
C -1.607674183 -0.447350651 1.953624265
C 0.157997016 4.676889403 -0.079442990
O 1.747946417 2.711967674 0.706134887
C 0.828390284 0.221717409 0.670199194
C 3.067213207 -1.506736314 0.938982858
H -3.504008245 -3.460360938 -2.767179878
H -0.544710494 -2.817389051 -4.166763259
H -0.712774383 -4.538379735 -1.320759219
H -2.370223687 1.027390067 -1.828087586
H -1.679655910 -2.221452296 2.973520000
H -2.731297192 1.047384314 2.783757614
H -1.637145917 4.717946386 0.956276498
H 1.165169885 6.428688575 0.313038972
H -0.243024505 4.591712228 -2.109570153
H 4.148592220 -0.965785751 2.609290426
H 2.496627789 -3.472284581 1.151742776
H 4.301230312 -1.350055795 -0.706719115

