19

C -1.365619730 -3.242196063 -0.182291316
C -1.322935863 -0.463483848 -1.086189821
C -3.168332981 1.072290640 0.229123189
C 0.106795699 3.601718972 1.674761255
O 1.589083567 1.420880216 1.971658016
C 1.421892505 0.609882273 -0.506029709
C 3.670115266 -0.901418485 -1.291657853
H -3.190173396 -4.112416758 -0.572964545
H 0.082585680 -4.364790475 -1.131194575
H -1.028163229 -3.339380237 1.850685309
H -1.553429537 -0.415431854 -3.136382002
H -3.615139599 0.601646808 2.171535747
H -4.638857361 2.054782495 -0.803121055
H -1.234762054 3.937089820 3.197314199
H 1.360964598 5.241447294 1.537781018
H 0.031616876 3.287183072 -0.654790650
H 3.999783544 -2.503098098 -0.015721066
H 3.435797692 -1.621842933 -3.208012051
H 5.352360101 0.288985706 -1.232884800

