9

O 4.050133766 -1.817147130 1.295938857
C 2.013280349 -0.924546050 0.982773085
N 1.293780658 1.505786991 0.380064969
C -1.290906781 1.885600304 0.318423331
C -2.127098232 -0.585227961 0.695645698
O -0.226866232 -2.268330202 1.147166086
H 2.587688418 2.861407915 0.084915316
H -2.287502494 0.543915297 -1.538017007
H -4.033228389 -1.256264983 0.979087476

