16

C -2.363546037 1.632730231 -1.512743488
C -0.608955910 -0.147164746 -0.064221152
C 0.562038432 -2.048438534 -1.819632611
C -1.978365864 -1.466791075 2.109908150
C 3.141195380 -1.568349606 -1.683167759
C 3.642235720 0.433637627 -0.021715070
N 1.549947887 1.325517493 0.968426738
H -3.913352592 0.545778756 -2.317711505
H -1.356792101 2.554434965 -3.057698001
H -3.144639632 3.080118260 -0.261469026
H -3.517854419 -2.599739240 1.350134861
H -2.757194698 -0.087803838 3.437639929
H -0.695878682 -2.721207622 3.125390995
H 4.616663245 -2.562131536 -2.690825721
H 5.452026127 1.254724422 0.490018721
H 1.458062619 2.768900228 2.200684130

