16

C -2.766925313 1.873966565 -1.452399544
C -0.445303965 0.473157658 -0.619667312
C 0.437813185 -1.907200252 -1.511478487
C -1.486681387 -1.939739956 1.530824615
C 3.085869490 -1.869539692 -0.716150076
C 3.677494419 0.412243697 0.280702678
N 1.568383791 1.912692892 0.303718748
H -4.126036940 0.550552904 -2.244597151
H -2.259691962 3.227454007 -2.922165313
H -3.654369671 2.906024519 0.103299592
H -3.514796105 -1.951486683 1.240234625
H -0.950326582 -0.939075077 3.255283532
H -0.844583820 -3.877338362 1.680825065
H 4.413207810 -3.395352281 -0.994019828
H 5.457380307 1.133283289 0.982083826
H 1.437179066 3.594031471 1.171932856

