10

C 3.274342950 -0.947908394 1.789350336
O 2.155969997 0.656737994 -0.024845004
C 2.335430220 -0.137654870 -2.446648690
C 1.043740601 0.914687141 -4.312297984
H -0.265303810 2.447374043 -3.968250761
H 1.303510385 0.246312270 -6.223096653
H 3.653072015 -1.684891945 -2.770216007
H 2.263818047 -2.748065941 1.919385395
H 3.160739362 0.022709973 3.598341389
H 5.262286135 -1.312780078 1.344628709

