17

C 4.845378934 -0.983345275 1.348517482
O 2.206089484 -0.542808995 1.042257752
C 1.347580745 -0.554799345 -1.276180240
C -1.017278104 0.512018383 -1.977273753
C -4.283926884 -0.926811227 0.579470721
C -3.070355368 1.388316286 -0.212109077
O -1.930970796 3.013530226 1.671183342
H 5.436306535 -2.632027913 0.253189758
H 5.146916617 -1.333920047 3.348113209
H 5.912439624 0.680922690 0.759687382
H 0.709735231 1.997827360 -2.335945548
H 2.479100825 -1.521673238 -2.701515599
H -1.588130503 0.001689302 -3.880947474
H -6.258616210 -1.245285051 0.174039146
H -3.158417569 -2.515486481 1.214465148
H -4.384805869 2.528183626 -1.331166489
H -2.599141463 2.371164827 3.235332843

