14

C -2.614024587 -1.536410494 -0.838089171
N -2.919182418 1.253523954 -0.514521911
C -0.424374889 -0.020116702 -0.165926741
C 1.543318085 0.526067212 1.805839387
C 3.421567128 -0.798177645 0.076411605
C 1.813799915 0.982443347 -1.741403921
O 2.003926129 2.905876913 0.632193324
H -3.632710310 -2.627093082 0.563620284
H -2.822866384 -2.155607170 -2.780944171
H -3.881227494 1.919092601 0.989614952
H 1.331265738 0.461271413 3.874953282
H 3.249691549 -2.840225805 -0.202797282
H 5.372756312 -0.197248951 0.318816054
H -2.942840901 2.349769726 -2.087581603

