14

C -2.797685292 -1.572841768 -0.695415926
N -2.891347130 1.234613238 -0.580747930
C -0.644225437 -0.165398808 0.256237225
C 1.599322897 0.420513819 1.951615808
C 3.344070046 -0.630944064 -0.140072283
C 1.307754011 1.080354177 -1.460094150
O 1.724905308 2.880645989 0.821779682
H -4.033180919 -2.521881616 0.634578272
H -2.778013168 -2.357450745 -2.591737024
H -4.126046218 2.075408856 0.607126901
H 1.752674115 0.256077184 4.008108940
H 3.278794729 -2.652324762 -0.555438961
H 5.257555678 0.119038819 -0.092657562
H -1.340336121 2.025664291 -2.222954874

