15

C -4.162269471 0.190060622 0.385479752
C -1.757222138 -1.210769203 -0.337202427
C 0.574553994 -0.291486437 1.111935110
C 5.636707512 -1.055409848 -1.559546638
C 1.153088129 2.364197237 0.610933546
N 1.603579543 4.440613827 0.175599682
H -4.571898279 -0.023971270 2.397890298
H -4.004154254 2.207580742 -0.017487922
H -5.777829028 -0.539639093 -0.665523803
H -1.963034875 -3.229231333 0.040489555
H -1.400390785 -1.022110247 -2.361872968
H 0.315637685 -0.514059552 3.149067790
H 2.227867198 -1.443685790 0.591640482
H 5.074923872 0.181504906 -3.154121503
H 6.760734544 0.251150290 -0.368486598

