14

C -3.709704480 0.001644629 -0.619721661
C -1.877893529 -1.717656167 0.817765223
C 0.689393369 -1.702401353 -0.404753938
C 4.530984027 2.077902388 -0.148862079
O 1.474243644 -3.326127361 -1.786348071
C 2.293296716 0.551954362 0.159595648
N 2.247422103 2.435379668 1.576133709
H -3.047527722 1.953994085 -0.635155715
H -5.561500211 -0.029679434 0.281280688
H -3.932767827 -0.630011087 -2.569542815
H -1.693489329 -1.062240906 2.767523544
H -2.552712233 -3.663882798 0.824392512
H 4.690212766 3.376621051 -1.726001708
H 6.285105521 1.547943474 0.768290549

