14

C -3.199196517 0.516017157 0.594288215
C -1.152617927 -1.472096368 0.212940141
C 1.336605915 -0.349158158 -0.617048530
C 3.294757359 0.381499195 1.202978486
O 3.526363554 -1.841008853 -0.268940871
C 1.262617449 1.011702014 -3.014926072
N 1.130217000 2.085075127 -4.893163928
H -2.639871524 1.899196922 2.019772144
H -4.951719511 -0.365909370 1.222011297
H -3.595822951 1.532481432 -1.156038105
H -0.794506644 -2.508776762 1.960771021
H -1.741991645 -2.857510752 -1.200802353
H 4.609401425 1.885509673 0.739792875
H 2.915764035 0.082978743 3.198365680

