16

C -3.940105823 -0.410109856 -0.129352566
C -1.919730988 0.977221504 1.335739985
N -0.135343338 -0.567266265 2.802081305
C 0.324768218 2.006415768 -0.020705616
C 1.596940803 0.475780485 -1.643848378
C 4.076990383 -0.357214854 -0.614299016
O 3.088189186 -2.270560816 0.876034966
H -5.078704269 0.919491089 -1.219173174
H -5.194974204 -1.418882833 1.160250852
H -3.129911164 -1.786969243 -1.433552814
H -2.746080368 2.364566357 2.625677337
H -0.343356982 -2.431966312 2.368420321
H 1.452579012 3.332205514 1.067574526
H 0.650028068 -0.858445357 -2.878274477
H 5.385384123 -1.204797801 -1.985259547
H 5.067117432 1.132986866 0.430684571

