11

C 3.718715431 -0.320932471 -0.454757320
C 1.208615067 -0.164598263 -0.297533126
N -0.292099861 1.622076692 0.902632332
C -2.804663352 0.837703024 0.728598439
C -2.834671201 -1.223816458 -0.696481429
O -0.406687978 -1.859754331 -1.393871041
H 0.380379910 2.658902199 2.337464359
H 4.894978273 1.108167487 0.400228856
H 4.579939517 -1.872483923 -1.454986239
H -4.338786559 1.872756308 1.570306870
H -4.333077866 -2.396673012 -1.406434715

