12

C 1.882391927 -0.818928520 -1.062951802
C 0.383862638 1.602726691 -0.484716622
C -2.244684853 0.865051349 -1.081457739
O -2.797537610 -1.415717315 -1.833697162
C -0.058686163 -2.061659228 0.584095316
C -0.700421943 0.255491539 1.822693363
H 3.692910049 -0.739686974 -0.081161621
H 2.084166546 -1.448982825 -3.011371970
H 1.060034708 3.531907160 -0.607195214
H -3.640325453 2.373650327 -1.297734210
H -0.365927682 -4.028646994 1.041330538
H -1.665496835 0.777277312 3.533177150

