13

C 1.111804152 -2.182680123 0.483774952
C 2.291746498 -0.159012857 -1.139717296
C 1.347758965 2.083283666 -0.568826423
C -0.653564105 2.122021578 1.213165338
N -2.764936395 0.924784836 0.195701474
C -1.467249995 -1.054297820 1.221962599
H 2.159592564 -2.603505199 2.212949454
H 0.867627329 -3.979302239 -0.523474716
H 3.275192307 -0.615476712 -2.873691967
H -0.722686318 2.516395288 -2.937217208
H -0.890131832 3.432148026 2.765188352
H -2.154903946 1.767163458 -2.523844210
H -2.625351510 -2.322365844 2.371920170

