14

N 3.410724806 -3.653219281 -0.012598596
C 1.988611468 -1.823369790 -0.430908768
O 2.917798571 0.517188844 -1.397125395
C 1.103306412 2.234015837 -1.249059968
C -1.275717522 1.271344695 -0.557917506
C -2.373033785 -0.834462409 -2.084033509
C -0.726969949 -1.517446582 0.124986127
H 5.241921974 -3.276746739 -0.453585500
H -1.929869841 4.625947546 -2.478953521
H 1.660143335 4.189766366 -1.316919560
H -2.492429176 3.192010833 -0.610210046
H -1.683653418 -1.137452233 -3.989455737
H -4.371783936 -1.183685270 -1.825744666
H -1.493209068 -2.540606818 1.715032018

