16

C 2.890735274 -0.282331319 2.197157296
C 1.732375131 -0.005699149 -0.388975122
C 0.107391189 -2.062700977 -1.521815780
C -1.043649195 0.410310470 -0.820324234
C -2.892616402 0.615014466 1.331741778
O -1.697041769 1.905758958 -2.915454328
H 4.726715812 -1.216901478 2.074631725
H 3.176354887 1.552950851 3.099897796
H 1.709462787 -1.419742564 3.447335339
H 2.909864896 0.973187411 -1.753003627
H 0.307408703 -2.456116010 -3.517421918
H -0.328755011 -3.685205844 -0.350763707
H -4.791195232 0.167600660 0.662358210
H -2.916176298 2.532722881 2.104116328
H -2.430180955 -0.675646764 2.868256151
H -1.460693798 3.646798426 -2.463742718

