16

C 2.012411680 -1.439114940 2.669063351
C 2.078740198 0.345018221 0.479407172
C 0.881239140 -0.650542565 -1.906838842
C -1.682068051 -1.824144427 -1.660476324
C -1.172846104 2.906121198 1.711831124
O -2.977749830 -1.228486671 -3.687241570
H 3.593475665 -2.732186421 2.312979177
H 2.434826412 -0.483393436 4.445120673
H 0.310096782 -2.601120497 2.863647676
H 1.012884453 2.573875201 1.077067584
H 0.999137357 0.705495404 -3.469273435
H 2.116232062 -2.252987365 -2.399511929
H -1.952793183 4.080077345 0.213824079
H -0.910506141 3.965156656 3.456476096
H -2.319433820 1.236643711 2.028418473
H -4.632321516 -1.974672054 -3.546703167

