12

O -2.149475802 1.845018266 2.234670344
C -0.627694926 -0.360126582 2.423671737
C -2.220132398 0.107630088 0.216235124
C 1.787849175 0.149649868 0.938050146
C 0.103342640 0.694932609 -1.437420951
C 0.487135358 -1.084922060 -3.493615639
N 0.766142176 -2.524944919 -5.090793073
H -0.915286675 -1.572339025 4.042436495
H -4.022270472 -0.654940298 -0.372463186
H 2.957638288 -1.522096007 0.678887172
H 2.928020742 1.724180107 1.611566584
H 0.142913373 2.622965334 -2.161108238

