12

O -3.761915175 -1.993336539 3.017499161
C -1.880219158 -1.698679613 1.791462842
C -1.026090596 0.810357988 0.865738132
C 1.758340591 1.352671913 0.816443870
C 0.384756610 0.999528153 -1.627226310
C 0.852478056 -1.237786353 -3.107114944
N 1.243619314 -3.014637020 -4.287412578
H -0.638709156 -3.313881803 1.295300394
H -2.306315531 2.345530787 1.294059997
H 3.022460486 -0.148428520 1.393550317
H 2.369031742 3.240116514 1.299994758
H -0.017437183 2.658544455 -2.752295620

