12

O -1.861116049 1.294092255 3.805457621
C -0.882446467 -0.462659096 2.462008687
C -2.098167055 0.117458119 -0.068278621
C 1.529027712 0.520790133 0.750830462
C 0.099992269 0.515104419 -1.779591336
C 0.682890254 -1.622264304 -3.409306094
N 1.160200567 -3.308934708 -4.683760050
H -0.650087330 -2.404708846 3.154872254
H -3.771149170 1.308470123 -0.050302487
H 3.005799489 -0.901199693 0.868565294
H 2.094319591 2.378953504 1.394502569
H 0.121127363 2.262916080 -2.865530410

