29

C     4.20624   2.26696  -0.72356
O     2.85045   1.84756  -0.46310
C     2.66004   1.03839   0.56646
O     3.50467   0.66398   1.34571
C     1.25095   0.45756   0.52761
O     0.80146   0.02822   1.82082
C    -0.55291  -0.00962   1.74193
O    -1.25984  -0.50983   2.57232
C    -0.85090   0.63407   0.41249
C    -2.17839   1.26028   0.03060
C    -2.13080   2.28515  -1.05870
O    -3.19105   0.86804   0.57105
O     0.26234   1.36331   0.11036
C    -0.27458  -1.00178  -0.58618
C    -1.50318  -1.74478  -1.01919
F    -1.29570  -2.89301  -1.67308
F    -2.25557  -0.96507  -1.82674
F    -2.26025  -2.03052   0.05857
C     1.02437  -0.86777  -0.51907
C     2.32030  -1.49903  -1.03602
H     4.59999   2.84103   0.12010
H     4.15841   2.88855  -1.62796
H     4.83947   1.38197  -0.90556
H    -3.15460   2.54707  -1.36089
H    -1.57916   1.86757  -1.92054
H    -1.59031   3.18607  -0.73427
H     2.32228  -2.40114  -1.64655
H     2.97485  -1.68156  -0.13554
H     2.88076  -0.69716  -1.61039
29

C     4.20663   2.26663  -0.72439
O     2.85081   1.84794  -0.46332
C     2.66113   1.04126   0.56789
O     3.50581   0.66332   1.34536
C     1.25028   0.47709   0.54389
O     0.80281   0.02980   1.81850
C    -0.55836  -0.00613   1.74228
O    -1.26025  -0.51233   2.57297
C    -0.85454   0.64799   0.42481
C    -2.17816   1.26305   0.03292
C    -2.13094   2.28505  -1.05945
O    -3.19268   0.86838   0.57030
O     0.26356   1.36157   0.11164
C    -0.26945  -1.01721  -0.59613
C    -1.50442  -1.74627  -1.01985
F    -1.30130  -2.89572  -1.67435
F    -2.25541  -0.96437  -1.82615
F    -2.26014  -2.02978   0.05904
C     1.02366  -0.89100  -0.53746
C     2.32750  -1.49733  -1.03597
H     4.60013   2.84088   0.11989
H     4.15847   2.88846  -1.62819
H     4.83947   1.38181  -0.90581
H    -3.15469   2.54650  -1.36141
H    -1.57915   1.86715  -1.92053
H    -1.59072   3.18649  -0.73515
H     2.32882  -2.40084  -1.64646
H     2.97511  -1.67961  -0.13410
H     2.88166  -0.69544  -1.60959
29

C     4.20702   2.26631  -0.72522
O     2.85117   1.84832  -0.46354
C     2.66223   1.04412   0.56932
O     3.50695   0.66267   1.34501
C     1.24961   0.49661   0.56018
O     0.80416   0.03139   1.81618
C    -0.56380  -0.00265   1.74262
O    -1.26067  -0.51482   2.57361
C    -0.85819   0.66192   0.43713
C    -2.17794   1.26581   0.03525
C    -2.13107   2.28496  -1.06020
O    -3.19430   0.86872   0.56954
O     0.26478   1.35984   0.11291
C    -0.26431  -1.03264  -0.60608
C    -1.50566  -1.74775  -1.02050
F    -1.30690  -2.89843  -1.67562
F    -2.25525  -0.96367  -1.82557
F    -2.26003  -2.02904   0.05950
C     1.02295  -0.91423  -0.55585
C     2.33471  -1.49563  -1.03592
H     4.60027   2.84073   0.11969
H     4.15853   2.88837  -1.62841
H     4.83948   1.38165  -0.90606
H    -3.15478   2.54593  -1.36193
H    -1.57913   1.86672  -1.92052
H    -1.59113   3.18690  -0.73603
H     2.33536  -2.40053  -1.64637
H     2.97537  -1.67766  -0.13267
H     2.88257  -0.69372  -1.60879
29

C     4.20741   2.26598  -0.72605
O     2.85153   1.84870  -0.46376
C     2.66332   1.04698   0.57076
O     3.50809   0.66202   1.34466
C     1.24893   0.51614   0.57646
O     0.80551   0.03298   1.81386
C    -0.56924   0.00084   1.74297
O    -1.26109  -0.51732   2.57426
C    -0.86183   0.67585   0.44945
C    -2.17771   1.26858   0.03758
C    -2.13121   2.28486  -1.06095
O    -3.19593   0.86906   0.56879
O     0.26600   1.35810   0.11419
C    -0.25917  -1.04807  -0.61603
C    -1.50690  -1.74924  -1.02116
F    -1.31249  -2.90114  -1.67690
F    -2.25509  -0.96296  -1.82498
F    -2.25992  -2.02829   0.05997
C     1.02224  -0.93745  -0.57424
C     2.34192  -1.49393  -1.03587
H     4.60041   2.84057   0.11948
H     4.15858   2.88827  -1.62864
H     4.83949   1.38150  -0.90630
H    -3.15488   2.54536  -1.36245
H    -1.57912   1.86630  -1.92051
H    -1.59154   3.18732  -0.73690
H     2.34189  -2.40023  -1.64628
H     2.97562  -1.67570  -0.13123
H     2.88347  -0.69200  -1.60798
29

C     4.20780   2.26565  -0.72689
O     2.85190   1.84908  -0.46398
C     2.66442   1.04985   0.57219
O     3.50923   0.66137   1.34432
C     1.24826   0.53566   0.59274
O     0.80686   0.03456   1.81154
C    -0.57469   0.00432   1.74332
O    -1.26151  -0.51982   2.57490
C    -0.86547   0.68977   0.46177
C    -2.17749   1.27134   0.03990
C    -2.13135   2.28477  -1.06170
O    -3.19755   0.86940   0.56804
O     0.26722   1.35637   0.11547
C    -0.25403  -1.06350  -0.62598
C    -1.50814  -1.75073  -1.02181
F    -1.31809  -2.90385  -1.67817
F    -2.25493  -0.96226  -1.82440
F    -2.25982  -2.02755   0.06044
C     1.02153  -0.96068  -0.59262
C     2.34912  -1.49222  -1.03581
H     4.60055   2.84042   0.11927
H     4.15864   2.88818  -1.62886
H     4.83950   1.38134  -0.90655
H    -3.15497   2.54479  -1.36297
H    -1.57910   1.86588  -1.92051
H    -1.59195   3.18773  -0.73778
H     2.34843  -2.39992  -1.64618
H     2.97588  -1.67375  -0.12980
H     2.88437  -0.69028  -1.60718
29

C     4.20819   2.26532  -0.72772
O     2.85226   1.84946  -0.46420
C     2.66551   1.05271   0.57362
O     3.51037   0.66071   1.34397
C     1.24759   0.55519   0.60903
O     0.80821   0.03615   1.80923
C    -0.58013   0.00781   1.74367
O    -1.26192  -0.52232   2.57554
C    -0.86911   0.70370   0.47409
C    -2.17726   1.27411   0.04223
C    -2.13149   2.28467  -1.06244
O    -3.19918   0.86974   0.56728
O     0.26845   1.35463   0.11674
C    -0.24890  -1.07893  -0.63593
C    -1.50938  -1.75221  -1.02247
F    -1.32369  -2.90656  -1.67944
F    -2.25478  -0.96156  -1.82381
F    -2.25971  -2.02681   0.06090
C     1.02082  -0.98391  -0.61101
C     2.35633  -1.49052  -1.03576
H     4.60068   2.84027   0.11906
H     4.15870   2.88808  -1.62909
H     4.83951   1.38118  -0.90680
H    -3.15506   2.54422  -1.36349
H    -1.57909   1.86545  -1.92050
H    -1.59236   3.18815  -0.73866
H     2.35497  -2.39962  -1.64609
H     2.97614  -1.67179  -0.12836
H     2.88528  -0.68856  -1.60637
29

C     4.20858   2.26499  -0.72855
O     2.85262   1.84984  -0.46441
C     2.66661   1.05558   0.57506
O     3.51151   0.66006   1.34362
C     1.24692   0.57472   0.62531
O     0.80956   0.03774   1.80691
C    -0.58557   0.01130   1.74402
O    -1.26234  -0.52481   2.57619
C    -0.87275   0.71763   0.48640
C    -2.17704   1.27687   0.04456
C    -2.13162   2.28457  -1.06319
O    -3.20080   0.87008   0.56653
O     0.26967   1.35290   0.11802
C    -0.24376  -1.09437  -0.64589
C    -1.51062  -1.75370  -1.02313
F    -1.32929  -2.90927  -1.68072
F    -2.25462  -0.96085  -1.82323
F    -2.25960  -2.02607   0.06137
C     1.02012  -1.00714  -0.62940
C     2.36354  -1.48882  -1.03571
H     4.60082   2.84012   0.11886
H     4.15875   2.88799  -1.62931
H     4.83952   1.38102  -0.90704
H    -3.15515   2.54365  -1.36401
H    -1.57907   1.86503  -1.92049
H    -1.59277   3.18856  -0.73954
H     2.36151  -2.39931  -1.64600
H     2.97640  -1.66984  -0.12692
H     2.88618  -0.68683  -1.60557
29

C     4.20897   2.26467  -0.72938
O     2.85298   1.85022  -0.46463
C     2.66770   1.05844   0.57649
O     3.51265   0.65941   1.34327
C     1.24625   0.59424   0.64159
O     0.81091   0.03932   1.80459
C    -0.59102   0.01478   1.74437
O    -1.26276  -0.52731   2.57683
C    -0.87639   0.73155   0.49872
C    -2.17682   1.27964   0.04688
C    -2.13176   2.28448  -1.06394
O    -3.20243   0.87042   0.56577
O     0.27089   1.35116   0.11929
C    -0.23862  -1.10980  -0.65584
C    -1.51186  -1.75519  -1.02378
F    -1.33489  -2.91198  -1.68199
F    -2.25446  -0.96015  -1.82264
F    -2.25950  -2.02533   0.06184
C     1.01941  -1.03037  -0.64778
C     2.37074  -1.48712  -1.03566
H     4.60096   2.83996   0.11865
H     4.15881   2.88790  -1.62954
H     4.83953   1.38086  -0.90729
H    -3.15524   2.54308  -1.36453
H    -1.57906   1.86460  -1.92048
H    -1.59319   3.18897  -0.74042
H     2.36805  -2.39901  -1.64591
H     2.97666  -1.66789  -0.12549
H     2.88708  -0.68511  -1.60476
29

C     4.20936   2.26434  -0.73022
O     2.85334   1.85060  -0.46485
C     2.66880   1.06131   0.57792
O     3.51379   0.65876   1.34292
C     1.24558   0.61377   0.65788
O     0.81226   0.04091   1.80227
C    -0.59646   0.01827   1.74472
O    -1.26317  -0.52981   2.57748
C    -0.88003   0.74548   0.51104
C    -2.17659   1.28241   0.04921
C    -2.13190   2.28438  -1.06469
O    -3.20406   0.87076   0.56502
O     0.27211   1.34943   0.12057
C    -0.23348  -1.12523  -0.66579
C    -1.51310  -1.75668  -1.02444
F    -1.34048  -2.91469  -1.68326
F    -2.25430  -0.95945  -1.82206
F    -2.25939  -2.02459   0.06230
C     1.01870  -1.05360  -0.66617
C     2.37795  -1.48542  -1.03561
H     4.60110   2.83981   0.11844
H     4.15887   2.88780  -1.62976
H     4.83954   1.38070  -0.90754
H    -3.15534   2.54251  -1.36505
H    -1.57904   1.86418  -1.92047
H    -1.59360   3.18939  -0.74130
H     2.37459  -2.39871  -1.64581
H     2.97692  -1.66593  -0.12405
H     2.88799  -0.68339  -1.60396
29

C     4.20975   2.26401  -0.73105
O     2.85370   1.85098  -0.46507
C     2.66989   1.06417   0.57936
O     3.51493   0.65810   1.34257
C     1.24491   0.63329   0.67416
O     0.81361   0.04250   1.79995
C    -0.60190   0.02175   1.74506
O    -1.26359  -0.53231   2.57812
C    -0.88367   0.75941   0.52336
C    -2.17637   1.28517   0.05153
C    -2.13203   2.28428  -1.06544
O    -3.20568   0.87110   0.56427
O     0.27333   1.34769   0.12185
C    -0.22835  -1.14066  -0.67574
C    -1.51434  -1.75816  -1.02509
F    -1.34608  -2.91739  -1.68454
F    -2.25414  -0.95874  -1.82147
F    -2.25928  -2.02385   0.06277
C     1.01799  -1.07683  -0.68456
C     2.38516  -1.48371  -1.03555
H     4.60124   2.83966   0.11824
H     4.15892   2.88771  -1.62999
H     4.83954   1.38055  -0.90779
H    -3.15543   2.54194  -1.36557
H    -1.57903   1.86376  -1.92046
H    -1.59401   3.18980  -0.74218
H     2.38113  -2.39840  -1.64572
H     2.97718  -1.66398  -0.12262
H     2.88889  -0.68167  -1.60315
29

C     4.21014   2.26368  -0.73188
O     2.85406   1.85136  -0.46529
C     2.67099   1.06704   0.58079
O     3.51607   0.65745   1.34223
C     1.24424   0.65282   0.69044
O     0.81496   0.04408   1.79763
C    -0.60735   0.02524   1.74541
O    -1.26401  -0.53480   2.57877
C    -0.88731   0.77333   0.53568
C    -2.17614   1.28794   0.05386
C    -2.13217   2.28419  -1.06619
O    -3.20731   0.87144   0.56351
O     0.27455   1.34596   0.12312
C    -0.22321  -1.15609  -0.68569
C    -1.51558  -1.75965  -1.02575
F    -1.35168  -2.92010  -1.68581
F    -2.25398  -0.95804  -1.82089
F    -2.25918  -2.02310   0.06324
C     1.01728  -1.10005  -0.70294
C     2.39236  -1.48201  -1.03550
H     4.60137   2.83951   0.11803
H     4.15898   2.88761  -1.63021
H     4.83955   1.38039  -0.90803
H    -3.15552   2.54137  -1.36609
H    -1.57902   1.86333  -1.92045
H    -1.59442   3.19022  -0.74306
H     2.38767  -2.39810  -1.64563
H     2.97743  -1.66202  -0.12118
H     2.88979  -0.67995  -1.60235
29

C     4.21053   2.26336  -0.73271
O     2.85442   1.85174  -0.46551
C     2.67208   1.06990   0.58222
O     3.51721   0.65680   1.34188
C     1.24357   0.67234   0.70672
O     0.81632   0.04567   1.79532
C    -0.61279   0.02872   1.74576
O    -1.26443  -0.53730   2.57941
C    -0.89095   0.78726   0.54800
C    -2.17592   1.29070   0.05619
C    -2.13231   2.28409  -1.06694
O    -3.20893   0.87178   0.56276
O     0.27578   1.34422   0.12440
C    -0.21807  -1.17152  -0.69564
C    -1.51682  -1.76114  -1.02641
F    -1.35728  -2.92281  -1.68708
F    -2.25382  -0.95734  -1.82030
F    -2.25907  -2.02236   0.06370
C     1.01657  -1.12328  -0.72133
C     2.39957  -1.48031  -1.03545
H     4.60151   2.83935   0.11782
H     4.15904   2.88752  -1.63044
H     4.83956   1.38023  -0.90828
H    -3.15561   2.54080  -1.36661
H    -1.57900   1.86291  -1.92044
H    -1.59483   3.19063  -0.74394
H     2.39421  -2.39779  -1.64554
H     2.97769  -1.66007  -0.11974
H     2.89070  -0.67823  -1.60154
29

C     4.21092   2.26303  -0.73354
O     2.85478   1.85212  -0.46573
C     2.67318   1.07277   0.58366
O     3.51836   0.65614   1.34153
C     1.24290   0.69187   0.72301
O     0.81767   0.04726   1.79300
C    -0.61823   0.03221   1.74611
O    -1.26484  -0.53980   2.58006
C    -0.89459   0.80119   0.56032
C    -2.17569   1.29347   0.05851
C    -2.13245   2.28400  -1.06768
O    -3.21056   0.87212   0.56200
O     0.27700   1.34249   0.12567
C    -0.21293  -1.18696  -0.70559
C    -1.51806  -1.76262  -1.02706
F    -1.36287  -2.92552  -1.68836
F    -2.25366  -0.95663  -1.81972
F    -2.25896  -2.02162   0.06417
C     1.01586  -1.14651  -0.73972
C     2.40678  -1.47861  -1.03540
H     4.60165   2.83920   0.11762
H     4.15909   2.88742  -1.63066
H     4.83957   1.38007  -0.90853
H    -3.15570   2.54023  -1.36713
H    -1.57899   1.86249  -1.92043
H    -1.59524   3.19105  -0.74482
H     2.40075  -2.39749  -1.64544
H     2.97795  -1.65812  -0.11831
H     2.89160  -0.67651  -1.60074
29

C     4.21131   2.26270  -0.73438
O     2.85515   1.85250  -0.46595
C     2.67427   1.07563   0.58509
O     3.51950   0.65549   1.34118
C     1.24223   0.71140   0.73929
O     0.81902   0.04884   1.79068
C    -0.62368   0.03569   1.74646
O    -1.26526  -0.54230   2.58070
C    -0.89823   0.81511   0.57264
C    -2.17547   1.29623   0.06084
C    -2.13258   2.28390  -1.06843
O    -3.21218   0.87246   0.56125
O     0.27822   1.34075   0.12695
C    -0.20780  -1.20239  -0.71555
C    -1.51930  -1.76411  -1.02772
F    -1.36847  -2.92823  -1.68963
F    -2.25350  -0.95593  -1.81913
F    -2.25885  -2.02088   0.06464
C     1.01515  -1.16974  -0.75810
C     2.41398  -1.47691  -1.03535
H     4.60179   2.83905   0.11741
H     4.15915   2.88733  -1.63089
H     4.83958   1.37991  -0.90878
H    -3.15579   2.53966  -1.36765
H    -1.57897   1.86206  -1.92042
H    -1.59565   3.19146  -0.74570
H     2.40729  -2.39718  -1.64535
H     2.97821  -1.65616  -0.11687
H     2.89250  -0.67479  -1.59993
29

C     4.21170   2.26237  -0.73521
O     2.85551   1.85288  -0.46617
C     2.67537   1.07849   0.58653
O     3.52064   0.65484   1.34083
C     1.24156   0.73092   0.75557
O     0.82037   0.05043   1.78836
C    -0.62912   0.03918   1.74681
O    -1.26568  -0.54479   2.58135
C    -0.90187   0.82904   0.58495
C    -2.17524   1.29900   0.06317
C    -2.13272   2.28380  -1.06918
O    -3.21381   0.87280   0.56050
O     0.27944   1.33902   0.12822
C    -0.20266  -1.21782  -0.72550
C    -1.52054  -1.76560  -1.02837
F    -1.37407  -2.93094  -1.69090
F    -2.25334  -0.95523  -1.81855
F    -2.25875  -2.02014   0.06510
C     1.01445  -1.19297  -0.77649
C     2.42119  -1.47520  -1.03530
H     4.60192   2.83889   0.11720
H     4.15920   2.88724  -1.63112
H     4.83959   1.37975  -0.90902
H    -3.15589   2.53909  -1.36817
H    -1.57896   1.86164  -1.92042
H    -1.59606   3.19188  -0.74658
H     2.41383  -2.39688  -1.64526
H     2.97847  -1.65421  -0.11544
H     2.89341  -0.67307  -1.59913
29

C     4.21209   2.26204  -0.73604
O     2.85587   1.85326  -0.46639
C     2.67646   1.08136   0.58796
O     3.52178   0.65419   1.34048
C     1.24088   0.75045   0.77186
O     0.82172   0.05202   1.78604
C    -0.63456   0.04266   1.74715
O    -1.26610  -0.54729   2.58199
C    -0.90551   0.84296   0.59727
C    -2.17502   1.30176   0.06549
C    -2.13286   2.28371  -1.06993
O    -3.21543   0.87314   0.55974
O     0.28066   1.33728   0.12950
C    -0.19752  -1.23325  -0.73545
C    -1.52178  -1.76709  -1.02903
F    -1.37967  -2.93365  -1.69218
F    -2.25318  -0.95452  -1.81796
F    -2.25864  -2.01940   0.06557
C     1.01374  -1.21620  -0.79488
C     2.42840  -1.47350  -1.03524
H     4.60206   2.83874   0.11700
H     4.15926   2.88714  -1.63134
H     4.83960   1.37959  -0.90927
H    -3.15598   2.53852  -1.36869
H    -1.57894   1.86121  -1.92041
H    -1.59648   3.19229  -0.74746
H     2.42037  -2.39657  -1.64517
H     2.97873  -1.65226  -0.11400
H     2.89431  -0.67135  -1.59833
29

C     4.21248   2.26172  -0.73687
O     2.85623   1.85364  -0.46661
C     2.67756   1.08422   0.58939
O     3.52292   0.65353   1.34014
C     1.24021   0.76997   0.78814
O     0.82307   0.05360   1.78372
C    -0.64001   0.04615   1.74750
O    -1.26651  -0.54979   2.58263
C    -0.90915   0.85689   0.60959
C    -2.17480   1.30453   0.06782
C    -2.13300   2.28361  -1.07068
O    -3.21706   0.87348   0.55899
O     0.28189   1.33555   0.13078
C    -0.19238  -1.24868  -0.74540
C    -1.52302  -1.76857  -1.02968
F    -1.38527  -2.93636  -1.69345
F    -2.25303  -0.95382  -1.81738
F    -2.25853  -2.01866   0.06604
C     1.01303  -1.23942  -0.81327
C     2.43560  -1.47180  -1.03519
H     4.60220   2.83859   0.11679
H     4.15932   2.88705  -1.63157
H     4.83961   1.37944  -0.90952
H    -3.15607   2.53795  -1.36921
H    -1.57893   1.86079  -1.92040
H    -1.59689   3.19271  -0.74834
H     2.42691  -2.39627  -1.64507
H     2.97899  -1.65030  -0.11257
H     2.89521  -0.66963  -1.59752
29

C     4.21287   2.26139  -0.73770
O     2.85659   1.85402  -0.46683
C     2.67865   1.08709   0.59083
O     3.52406   0.65288   1.33979
C     1.23954   0.78950   0.80442
O     0.82442   0.05519   1.78141
C    -0.64545   0.04964   1.74785
O    -1.26693  -0.55229   2.58328
C    -0.91279   0.87082   0.62191
C    -2.17457   1.30729   0.07015
C    -2.13313   2.28351  -1.07143
O    -3.21868   0.87382   0.55824
O     0.28311   1.33381   0.13205
C    -0.18725  -1.26411  -0.75535
C    -1.52426  -1.77006  -1.03034
F    -1.39086  -2.93907  -1.69472
F    -2.25287  -0.95312  -1.81679
F    -2.25843  -2.01791   0.06650
C     1.01232  -1.26265  -0.83165
C     2.44281  -1.47010  -1.03514
H     4.60234   2.83844   0.11658
H     4.15937   2.88695  -1.63179
H     4.83961   1.37928  -0.90976
H    -3.15616   2.53739  -1.36973
H    -1.57891   1.86037  -1.92039
H    -1.59730   3.19312  -0.74921
H     2.43345  -2.39597  -1.64498
H     2.97925  -1.64835  -0.11113
H     2.89612  -0.66791  -1.59672
29

C     4.21326   2.26106  -0.73854
O     2.85695   1.85440  -0.46705
C     2.67975   1.08995   0.59226
O     3.52520   0.65223   1.33944
C     1.23887   0.80902   0.82070
O     0.82577   0.05678   1.77909
C    -0.65089   0.05312   1.74820
O    -1.26735  -0.55478   2.58392
C    -0.91644   0.88474   0.63423
C    -2.17435   1.31006   0.07247
C    -2.13327   2.28342  -1.07217
O    -3.22031   0.87416   0.55748
O     0.28433   1.33208   0.13333
C    -0.18211  -1.27954  -0.76530
C    -1.52550  -1.77155  -1.03100
F    -1.39646  -2.94178  -1.69600
F    -2.25271  -0.95241  -1.81621
F    -2.25832  -2.01717   0.06697
C     1.01161  -1.28588  -0.85004
C     2.45002  -1.46840  -1.03509
H     4.60248   2.83828   0.11638
H     4.15943   2.88686  -1.63202
H     4.83962   1.37912  -0.91001
H    -3.15625   2.53682  -1.37025
H    -1.57890   1.85994  -1.92038
H    -1.59771   3.19354  -0.75009
H     2.43999  -2.39566  -1.64489
H     2.97950  -1.64639  -0.10969
H     2.89702  -0.66618  -1.59591
29

C     4.21365   2.26073  -0.73937
O     2.85731   1.85478  -0.46727
C     2.68084   1.09282   0.59369
O     3.52634   0.65158   1.33909
C     1.23820   0.82855   0.83699
O     0.82712   0.05836   1.77677
C    -0.65634   0.05661   1.74855
O    -1.26777  -0.55728   2.58457
C    -0.92008   0.89867   0.64655
C    -2.17412   1.31283   0.07480
C    -2.13341   2.28332  -1.07292
O    -3.22193   0.87450   0.55673
O     0.28555   1.33034   0.13460
C    -0.17697  -1.29498  -0.77526
C    -1.52674  -1.77303  -1.03165
F    -1.40206  -2.94449  -1.69727
F    -2.25255  -0.95171  -1.81562
F    -2.25821  -2.01643   0.06744
C     1.01090  -1.30911  -0.86843
C     2.45722  -1.46669  -1.03504
H     4.60261   2.83813   0.11617
H     4.15949   2.88677  -1.63224
H     4.83963   1.37896  -0.91026
H    -3.15635   2.53625  -1.37077
H    -1.57888   1.85952  -1.92037
H    -1.59812   3.19395  -0.75097
H     2.44653  -2.39536  -1.64480
H     2.97976  -1.64444  -0.10826
H     2.89792  -0.66446  -1.59511
29

C     4.21404   2.26040  -0.74020
O     2.85767   1.85516  -0.46748
C     2.68194   1.09568   0.59513
O     3.52748   0.65092   1.33874
C     1.23753   0.84808   0.85327
O     0.82847   0.05995   1.77445
C    -0.66178   0.06009   1.74890
O    -1.26818  -0.55978   2.58521
C    -0.92372   0.91260   0.65887
C    -2.17390   1.31559   0.07713
C    -2.13355   2.28323  -1.07367
O    -3.22356   0.87484   0.55597
O     0.28677   1.32861   0.13588
C    -0.17183  -1.31041  -0.78521
C    -1.52798  -1.77452  -1.03231
F    -1.40766  -2.94720  -1.69854
F    -2.25239  -0.95101  -1.81504
F    -2.25810  -2.01569   0.06790
C     1.01019  -1.33234  -0.88681
C     2.46443  -1.46499  -1.03498
H     4.60275   2.83798   0.11596
H     4.15954   2.88667  -1.63247
H     4.83964   1.37880  -0.91051
H    -3.15644   2.53568  -1.37129
H    -1.57887   1.85909  -1.92036
H    -1.59853   3.19437  -0.75185
H     2.45307  -2.39505  -1.64470
H     2.98002  -1.64249  -0.10682
H     2.89883  -0.66274  -1.59430
29

C     4.21365   2.26073  -0.73937
O     2.85731   1.85478  -0.46727
C     2.68084   1.09282   0.59369
O     3.52634   0.65158   1.33909
C     1.23820   0.82855   0.83699
O     0.82712   0.05836   1.77677
C    -0.65634   0.05661   1.74855
O    -1.26777  -0.55728   2.58457
C    -0.92008   0.89867   0.64655
C    -2.17412   1.31283   0.07480
C    -2.13341   2.28332  -1.07292
O    -3.22193   0.87450   0.55673
O     0.28555   1.33034   0.13460
C    -0.17697  -1.29498  -0.77526
C    -1.52674  -1.77303  -1.03165
F    -1.40206  -2.94449  -1.69727
F    -2.25255  -0.95171  -1.81562
F    -2.25821  -2.01643   0.06744
C     1.01090  -1.30911  -0.86843
C     2.45722  -1.46669  -1.03504
H     4.60261   2.83813   0.11617
H     4.15949   2.88677  -1.63224
H     4.83963   1.37896  -0.91026
H    -3.15635   2.53625  -1.37077
H    -1.57888   1.85952  -1.92037
H    -1.59812   3.19395  -0.75097
H     2.44653  -2.39536  -1.64480
H     2.97976  -1.64444  -0.10826
H     2.89792  -0.66446  -1.59511
29

C     4.21326   2.26106  -0.73854
O     2.85695   1.85440  -0.46705
C     2.67975   1.08995   0.59226
O     3.52520   0.65223   1.33944
C     1.23887   0.80902   0.82070
O     0.82577   0.05678   1.77909
C    -0.65089   0.05312   1.74820
O    -1.26735  -0.55478   2.58392
C    -0.91644   0.88474   0.63423
C    -2.17435   1.31006   0.07247
C    -2.13327   2.28342  -1.07217
O    -3.22031   0.87416   0.55748
O     0.28433   1.33208   0.13333
C    -0.18211  -1.27954  -0.76530
C    -1.52550  -1.77155  -1.03100
F    -1.39646  -2.94178  -1.69600
F    -2.25271  -0.95241  -1.81621
F    -2.25832  -2.01717   0.06697
C     1.01161  -1.28588  -0.85004
C     2.45002  -1.46840  -1.03509
H     4.60248   2.83828   0.11638
H     4.15943   2.88686  -1.63202
H     4.83962   1.37912  -0.91001
H    -3.15625   2.53682  -1.37025
H    -1.57890   1.85994  -1.92038
H    -1.59771   3.19354  -0.75009
H     2.43999  -2.39566  -1.64489
H     2.97950  -1.64639  -0.10969
H     2.89702  -0.66618  -1.59591
29

C     4.21287   2.26139  -0.73770
O     2.85659   1.85402  -0.46683
C     2.67865   1.08709   0.59083
O     3.52406   0.65288   1.33979
C     1.23954   0.78950   0.80442
O     0.82442   0.05519   1.78141
C    -0.64545   0.04964   1.74785
O    -1.26693  -0.55229   2.58328
C    -0.91279   0.87082   0.62191
C    -2.17457   1.30729   0.07015
C    -2.13313   2.28351  -1.07143
O    -3.21868   0.87382   0.55824
O     0.28311   1.33381   0.13205
C    -0.18725  -1.26411  -0.75535
C    -1.52426  -1.77006  -1.03034
F    -1.39086  -2.93907  -1.69472
F    -2.25287  -0.95312  -1.81679
F    -2.25843  -2.01791   0.06650
C     1.01232  -1.26265  -0.83165
C     2.44281  -1.47010  -1.03514
H     4.60234   2.83844   0.11658
H     4.15937   2.88695  -1.63179
H     4.83961   1.37928  -0.90976
H    -3.15616   2.53739  -1.36973
H    -1.57891   1.86037  -1.92039
H    -1.59730   3.19312  -0.74921
H     2.43345  -2.39597  -1.64498
H     2.97925  -1.64835  -0.11113
H     2.89612  -0.66791  -1.59672
29

C     4.21248   2.26172  -0.73687
O     2.85623   1.85364  -0.46661
C     2.67756   1.08422   0.58939
O     3.52292   0.65353   1.34014
C     1.24021   0.76997   0.78814
O     0.82307   0.05360   1.78372
C    -0.64001   0.04615   1.74750
O    -1.26651  -0.54979   2.58263
C    -0.90915   0.85689   0.60959
C    -2.17480   1.30453   0.06782
C    -2.13300   2.28361  -1.07068
O    -3.21706   0.87348   0.55899
O     0.28189   1.33555   0.13078
C    -0.19238  -1.24868  -0.74540
C    -1.52302  -1.76857  -1.02968
F    -1.38527  -2.93636  -1.69345
F    -2.25303  -0.95382  -1.81738
F    -2.25853  -2.01866   0.06604
C     1.01303  -1.23942  -0.81327
C     2.43560  -1.47180  -1.03519
H     4.60220   2.83859   0.11679
H     4.15932   2.88705  -1.63157
H     4.83961   1.37944  -0.90952
H    -3.15607   2.53795  -1.36921
H    -1.57893   1.86079  -1.92040
H    -1.59689   3.19271  -0.74834
H     2.42691  -2.39627  -1.64507
H     2.97899  -1.65030  -0.11257
H     2.89521  -0.66963  -1.59752
29

C     4.21209   2.26204  -0.73604
O     2.85587   1.85326  -0.46639
C     2.67646   1.08136   0.58796
O     3.52178   0.65419   1.34048
C     1.24088   0.75045   0.77186
O     0.82172   0.05202   1.78604
C    -0.63456   0.04266   1.74715
O    -1.26610  -0.54729   2.58199
C    -0.90551   0.84296   0.59727
C    -2.17502   1.30176   0.06549
C    -2.13286   2.28371  -1.06993
O    -3.21543   0.87314   0.55974
O     0.28066   1.33728   0.12950
C    -0.19752  -1.23325  -0.73545
C    -1.52178  -1.76709  -1.02903
F    -1.37967  -2.93365  -1.69218
F    -2.25318  -0.95452  -1.81796
F    -2.25864  -2.01940   0.06557
C     1.01374  -1.21620  -0.79488
C     2.42840  -1.47350  -1.03524
H     4.60206   2.83874   0.11700
H     4.15926   2.88714  -1.63134
H     4.83960   1.37959  -0.90927
H    -3.15598   2.53852  -1.36869
H    -1.57894   1.86121  -1.92041
H    -1.59648   3.19229  -0.74746
H     2.42037  -2.39657  -1.64517
H     2.97873  -1.65226  -0.11400
H     2.89431  -0.67135  -1.59833
29

C     4.21170   2.26237  -0.73521
O     2.85551   1.85288  -0.46617
C     2.67537   1.07849   0.58653
O     3.52064   0.65484   1.34083
C     1.24156   0.73092   0.75557
O     0.82037   0.05043   1.78836
C    -0.62912   0.03918   1.74681
O    -1.26568  -0.54479   2.58135
C    -0.90187   0.82904   0.58495
C    -2.17524   1.29900   0.06317
C    -2.13272   2.28380  -1.06918
O    -3.21381   0.87280   0.56050
O     0.27944   1.33902   0.12822
C    -0.20266  -1.21782  -0.72550
C    -1.52054  -1.76560  -1.02837
F    -1.37407  -2.93094  -1.69090
F    -2.25334  -0.95523  -1.81855
F    -2.25875  -2.02014   0.06510
C     1.01445  -1.19297  -0.77649
C     2.42119  -1.47520  -1.03530
H     4.60192   2.83889   0.11720
H     4.15920   2.88724  -1.63112
H     4.83959   1.37975  -0.90902
H    -3.15589   2.53909  -1.36817
H    -1.57896   1.86164  -1.92042
H    -1.59606   3.19188  -0.74658
H     2.41383  -2.39688  -1.64526
H     2.97847  -1.65421  -0.11544
H     2.89341  -0.67307  -1.59913
29

C     4.21131   2.26270  -0.73438
O     2.85515   1.85250  -0.46595
C     2.67427   1.07563   0.58509
O     3.51950   0.65549   1.34118
C     1.24223   0.71140   0.73929
O     0.81902   0.04884   1.79068
C    -0.62368   0.03569   1.74646
O    -1.26526  -0.54230   2.58070
C    -0.89823   0.81511   0.57264
C    -2.17547   1.29623   0.06084
C    -2.13258   2.28390  -1.06843
O    -3.21218   0.87246   0.56125
O     0.27822   1.34075   0.12695
C    -0.20780  -1.20239  -0.71555
C    -1.51930  -1.76411  -1.02772
F    -1.36847  -2.92823  -1.68963
F    -2.25350  -0.95593  -1.81913
F    -2.25885  -2.02088   0.06464
C     1.01515  -1.16974  -0.75810
C     2.41398  -1.47691  -1.03535
H     4.60179   2.83905   0.11741
H     4.15915   2.88733  -1.63089
H     4.83958   1.37991  -0.90878
H    -3.15579   2.53966  -1.36765
H    -1.57897   1.86206  -1.92042
H    -1.59565   3.19146  -0.74570
H     2.40729  -2.39718  -1.64535
H     2.97821  -1.65616  -0.11687
H     2.89250  -0.67479  -1.59993
29

C     4.21092   2.26303  -0.73354
O     2.85478   1.85212  -0.46573
C     2.67318   1.07277   0.58366
O     3.51836   0.65614   1.34153
C     1.24290   0.69187   0.72301
O     0.81767   0.04726   1.79300
C    -0.61823   0.03221   1.74611
O    -1.26484  -0.53980   2.58006
C    -0.89459   0.80119   0.56032
C    -2.17569   1.29347   0.05851
C    -2.13245   2.28400  -1.06768
O    -3.21056   0.87212   0.56200
O     0.27700   1.34249   0.12567
C    -0.21293  -1.18696  -0.70559
C    -1.51806  -1.76262  -1.02706
F    -1.36287  -2.92552  -1.68836
F    -2.25366  -0.95663  -1.81972
F    -2.25896  -2.02162   0.06417
C     1.01586  -1.14651  -0.73972
C     2.40678  -1.47861  -1.03540
H     4.60165   2.83920   0.11762
H     4.15909   2.88742  -1.63066
H     4.83957   1.38007  -0.90853
H    -3.15570   2.54023  -1.36713
H    -1.57899   1.86249  -1.92043
H    -1.59524   3.19105  -0.74482
H     2.40075  -2.39749  -1.64544
H     2.97795  -1.65812  -0.11831
H     2.89160  -0.67651  -1.60074
29

C     4.21053   2.26336  -0.73271
O     2.85442   1.85174  -0.46551
C     2.67208   1.06990   0.58222
O     3.51721   0.65680   1.34188
C     1.24357   0.67234   0.70672
O     0.81632   0.04567   1.79532
C    -0.61279   0.02872   1.74576
O    -1.26443  -0.53730   2.57941
C    -0.89095   0.78726   0.54800
C    -2.17592   1.29070   0.05619
C    -2.13231   2.28409  -1.06694
O    -3.20893   0.87178   0.56276
O     0.27578   1.34422   0.12440
C    -0.21807  -1.17152  -0.69564
C    -1.51682  -1.76114  -1.02641
F    -1.35728  -2.92281  -1.68708
F    -2.25382  -0.95734  -1.82030
F    -2.25907  -2.02236   0.06370
C     1.01657  -1.12328  -0.72133
C     2.39957  -1.48031  -1.03545
H     4.60151   2.83935   0.11782
H     4.15904   2.88752  -1.63044
H     4.83956   1.38023  -0.90828
H    -3.15561   2.54080  -1.36661
H    -1.57900   1.86291  -1.92044
H    -1.59483   3.19063  -0.74394
H     2.39421  -2.39779  -1.64554
H     2.97769  -1.66007  -0.11974
H     2.89070  -0.67823  -1.60154
29

C     4.21014   2.26368  -0.73188
O     2.85406   1.85136  -0.46529
C     2.67099   1.06704   0.58079
O     3.51607   0.65745   1.34223
C     1.24424   0.65282   0.69044
O     0.81496   0.04408   1.79763
C    -0.60735   0.02524   1.74541
O    -1.26401  -0.53480   2.57877
C    -0.88731   0.77333   0.53568
C    -2.17614   1.28794   0.05386
C    -2.13217   2.28419  -1.06619
O    -3.20731   0.87144   0.56351
O     0.27455   1.34596   0.12312
C    -0.22321  -1.15609  -0.68569
C    -1.51558  -1.75965  -1.02575
F    -1.35168  -2.92010  -1.68581
F    -2.25398  -0.95804  -1.82089
F    -2.25918  -2.02310   0.06324
C     1.01728  -1.10005  -0.70294
C     2.39236  -1.48201  -1.03550
H     4.60137   2.83951   0.11803
H     4.15898   2.88761  -1.63021
H     4.83955   1.38039  -0.90803
H    -3.15552   2.54137  -1.36609
H    -1.57902   1.86333  -1.92045
H    -1.59442   3.19022  -0.74306
H     2.38767  -2.39810  -1.64563
H     2.97743  -1.66202  -0.12118
H     2.88979  -0.67995  -1.60235
29

C     4.20975   2.26401  -0.73105
O     2.85370   1.85098  -0.46507
C     2.66989   1.06417   0.57936
O     3.51493   0.65810   1.34257
C     1.24491   0.63329   0.67416
O     0.81361   0.04250   1.79995
C    -0.60190   0.02175   1.74506
O    -1.26359  -0.53231   2.57812
C    -0.88367   0.75941   0.52336
C    -2.17637   1.28517   0.05153
C    -2.13203   2.28428  -1.06544
O    -3.20568   0.87110   0.56427
O     0.27333   1.34769   0.12185
C    -0.22835  -1.14066  -0.67574
C    -1.51434  -1.75816  -1.02509
F    -1.34608  -2.91739  -1.68454
F    -2.25414  -0.95874  -1.82147
F    -2.25928  -2.02385   0.06277
C     1.01799  -1.07683  -0.68456
C     2.38516  -1.48371  -1.03555
H     4.60124   2.83966   0.11824
H     4.15892   2.88771  -1.62999
H     4.83954   1.38055  -0.90779
H    -3.15543   2.54194  -1.36557
H    -1.57903   1.86376  -1.92046
H    -1.59401   3.18980  -0.74218
H     2.38113  -2.39840  -1.64572
H     2.97718  -1.66398  -0.12262
H     2.88889  -0.68167  -1.60315
29

C     4.20936   2.26434  -0.73022
O     2.85334   1.85060  -0.46485
C     2.66880   1.06131   0.57792
O     3.51379   0.65876   1.34292
C     1.24558   0.61377   0.65788
O     0.81226   0.04091   1.80227
C    -0.59646   0.01827   1.74472
O    -1.26317  -0.52981   2.57748
C    -0.88003   0.74548   0.51104
C    -2.17659   1.28241   0.04921
C    -2.13190   2.28438  -1.06469
O    -3.20406   0.87076   0.56502
O     0.27211   1.34943   0.12057
C    -0.23348  -1.12523  -0.66579
C    -1.51310  -1.75668  -1.02444
F    -1.34048  -2.91469  -1.68326
F    -2.25430  -0.95945  -1.82206
F    -2.25939  -2.02459   0.06230
C     1.01870  -1.05360  -0.66617
C     2.37795  -1.48542  -1.03561
H     4.60110   2.83981   0.11844
H     4.15887   2.88780  -1.62976
H     4.83954   1.38070  -0.90754
H    -3.15534   2.54251  -1.36505
H    -1.57904   1.86418  -1.92047
H    -1.59360   3.18939  -0.74130
H     2.37459  -2.39871  -1.64581
H     2.97692  -1.66593  -0.12405
H     2.88799  -0.68339  -1.60396
29

C     4.20897   2.26467  -0.72938
O     2.85298   1.85022  -0.46463
C     2.66770   1.05844   0.57649
O     3.51265   0.65941   1.34327
C     1.24625   0.59424   0.64159
O     0.81091   0.03932   1.80459
C    -0.59102   0.01478   1.74437
O    -1.26276  -0.52731   2.57683
C    -0.87639   0.73155   0.49872
C    -2.17682   1.27964   0.04688
C    -2.13176   2.28448  -1.06394
O    -3.20243   0.87042   0.56577
O     0.27089   1.35116   0.11929
C    -0.23862  -1.10980  -0.65584
C    -1.51186  -1.75519  -1.02378
F    -1.33489  -2.91198  -1.68199
F    -2.25446  -0.96015  -1.82264
F    -2.25950  -2.02533   0.06184
C     1.01941  -1.03037  -0.64778
C     2.37074  -1.48712  -1.03566
H     4.60096   2.83996   0.11865
H     4.15881   2.88790  -1.62954
H     4.83953   1.38086  -0.90729
H    -3.15524   2.54308  -1.36453
H    -1.57906   1.86460  -1.92048
H    -1.59319   3.18897  -0.74042
H     2.36805  -2.39901  -1.64591
H     2.97666  -1.66789  -0.12549
H     2.88708  -0.68511  -1.60476
29

C     4.20858   2.26499  -0.72855
O     2.85262   1.84984  -0.46441
C     2.66661   1.05558   0.57506
O     3.51151   0.66006   1.34362
C     1.24692   0.57472   0.62531
O     0.80956   0.03774   1.80691
C    -0.58557   0.01130   1.74402
O    -1.26234  -0.52481   2.57619
C    -0.87275   0.71763   0.48640
C    -2.17704   1.27687   0.04456
C    -2.13162   2.28457  -1.06319
O    -3.20080   0.87008   0.56653
O     0.26967   1.35290   0.11802
C    -0.24376  -1.09437  -0.64589
C    -1.51062  -1.75370  -1.02313
F    -1.32929  -2.90927  -1.68072
F    -2.25462  -0.96085  -1.82323
F    -2.25960  -2.02607   0.06137
C     1.02012  -1.00714  -0.62940
C     2.36354  -1.48882  -1.03571
H     4.60082   2.84012   0.11886
H     4.15875   2.88799  -1.62931
H     4.83952   1.38102  -0.90704
H    -3.15515   2.54365  -1.36401
H    -1.57907   1.86503  -1.92049
H    -1.59277   3.18856  -0.73954
H     2.36151  -2.39931  -1.64600
H     2.97640  -1.66984  -0.12692
H     2.88618  -0.68683  -1.60557
29

C     4.20819   2.26532  -0.72772
O     2.85226   1.84946  -0.46420
C     2.66551   1.05271   0.57362
O     3.51037   0.66071   1.34397
C     1.24759   0.55519   0.60903
O     0.80821   0.03615   1.80923
C    -0.58013   0.00781   1.74367
O    -1.26192  -0.52232   2.57554
C    -0.86911   0.70370   0.47409
C    -2.17726   1.27411   0.04223
C    -2.13149   2.28467  -1.06244
O    -3.19918   0.86974   0.56728
O     0.26845   1.35463   0.11674
C    -0.24890  -1.07893  -0.63593
C    -1.50938  -1.75221  -1.02247
F    -1.32369  -2.90656  -1.67944
F    -2.25478  -0.96156  -1.82381
F    -2.25971  -2.02681   0.06090
C     1.02082  -0.98391  -0.61101
C     2.35633  -1.49052  -1.03576
H     4.60068   2.84027   0.11906
H     4.15870   2.88808  -1.62909
H     4.83951   1.38118  -0.90680
H    -3.15506   2.54422  -1.36349
H    -1.57909   1.86545  -1.92050
H    -1.59236   3.18815  -0.73866
H     2.35497  -2.39962  -1.64609
H     2.97614  -1.67179  -0.12836
H     2.88528  -0.68856  -1.60637
29

C     4.20780   2.26565  -0.72689
O     2.85190   1.84908  -0.46398
C     2.66442   1.04985   0.57219
O     3.50923   0.66137   1.34432
C     1.24826   0.53566   0.59274
O     0.80686   0.03456   1.81154
C    -0.57469   0.00432   1.74332
O    -1.26151  -0.51982   2.57490
C    -0.86547   0.68977   0.46177
C    -2.17749   1.27134   0.03990
C    -2.13135   2.28477  -1.06170
O    -3.19755   0.86940   0.56804
O     0.26722   1.35637   0.11547
C    -0.25403  -1.06350  -0.62598
C    -1.50814  -1.75073  -1.02181
F    -1.31809  -2.90385  -1.67817
F    -2.25493  -0.96226  -1.82440
F    -2.25982  -2.02755   0.06044
C     1.02153  -0.96068  -0.59262
C     2.34912  -1.49222  -1.03581
H     4.60055   2.84042   0.11927
H     4.15864   2.88818  -1.62886
H     4.83950   1.38134  -0.90655
H    -3.15497   2.54479  -1.36297
H    -1.57910   1.86588  -1.92051
H    -1.59195   3.18773  -0.73778
H     2.34843  -2.39992  -1.64618
H     2.97588  -1.67375  -0.12980
H     2.88437  -0.69028  -1.60718
29

C     4.20741   2.26598  -0.72605
O     2.85153   1.84870  -0.46376
C     2.66332   1.04698   0.57076
O     3.50809   0.66202   1.34466
C     1.24893   0.51614   0.57646
O     0.80551   0.03298   1.81386
C    -0.56924   0.00084   1.74297
O    -1.26109  -0.51732   2.57426
C    -0.86183   0.67585   0.44945
C    -2.17771   1.26858   0.03758
C    -2.13121   2.28486  -1.06095
O    -3.19593   0.86906   0.56879
O     0.26600   1.35810   0.11419
C    -0.25917  -1.04807  -0.61603
C    -1.50690  -1.74924  -1.02116
F    -1.31249  -2.90114  -1.67690
F    -2.25509  -0.96296  -1.82498
F    -2.25992  -2.02829   0.05997
C     1.02224  -0.93745  -0.57424
C     2.34192  -1.49393  -1.03587
H     4.60041   2.84057   0.11948
H     4.15858   2.88827  -1.62864
H     4.83949   1.38150  -0.90630
H    -3.15488   2.54536  -1.36245
H    -1.57912   1.86630  -1.92051
H    -1.59154   3.18732  -0.73690
H     2.34189  -2.40023  -1.64628
H     2.97562  -1.67570  -0.13123
H     2.88347  -0.69200  -1.60798
29

C     4.20702   2.26631  -0.72522
O     2.85117   1.84832  -0.46354
C     2.66223   1.04412   0.56932
O     3.50695   0.66267   1.34501
C     1.24961   0.49661   0.56018
O     0.80416   0.03139   1.81618
C    -0.56380  -0.00265   1.74262
O    -1.26067  -0.51482   2.57361
C    -0.85819   0.66192   0.43713
C    -2.17794   1.26581   0.03525
C    -2.13107   2.28496  -1.06020
O    -3.19430   0.86872   0.56954
O     0.26478   1.35984   0.11291
C    -0.26431  -1.03264  -0.60608
C    -1.50566  -1.74775  -1.02050
F    -1.30690  -2.89843  -1.67562
F    -2.25525  -0.96367  -1.82557
F    -2.26003  -2.02904   0.05950
C     1.02295  -0.91423  -0.55585
C     2.33471  -1.49563  -1.03592
H     4.60027   2.84073   0.11969
H     4.15853   2.88837  -1.62841
H     4.83948   1.38165  -0.90606
H    -3.15478   2.54593  -1.36193
H    -1.57913   1.86672  -1.92052
H    -1.59113   3.18690  -0.73603
H     2.33536  -2.40053  -1.64637
H     2.97537  -1.67766  -0.13267
H     2.88257  -0.69372  -1.60879
29

C     4.20663   2.26663  -0.72439
O     2.85081   1.84794  -0.46332
C     2.66113   1.04126   0.56789
O     3.50581   0.66332   1.34536
C     1.25028   0.47709   0.54389
O     0.80281   0.02980   1.81850
C    -0.55836  -0.00613   1.74228
O    -1.26025  -0.51233   2.57297
C    -0.85454   0.64799   0.42481
C    -2.17816   1.26305   0.03292
C    -2.13094   2.28505  -1.05945
O    -3.19268   0.86838   0.57030
O     0.26356   1.36157   0.11164
C    -0.26945  -1.01721  -0.59613
C    -1.50442  -1.74627  -1.01985
F    -1.30130  -2.89572  -1.67435
F    -2.25541  -0.96437  -1.82615
F    -2.26014  -2.02978   0.05904
C     1.02366  -0.89100  -0.53746
C     2.32750  -1.49733  -1.03597
H     4.60013   2.84088   0.11989
H     4.15847   2.88846  -1.62819
H     4.83947   1.38181  -0.90581
H    -3.15469   2.54650  -1.36141
H    -1.57915   1.86715  -1.92053
H    -1.59072   3.18649  -0.73515
H     2.32882  -2.40084  -1.64646
H     2.97511  -1.67961  -0.13410
H     2.88166  -0.69544  -1.60959
