17

C 5.672282759 -1.124811004 0.837722696
O 3.192718063 -2.189280086 0.560518034
C 1.305011036 -0.649335578 0.589789646
C -2.957793075 1.605434271 -1.580242484
C -4.307597763 -0.860085678 -1.942260889
C -2.293352406 2.579217324 0.743973043
O -2.098321011 1.327951082 2.776786603
H 5.954963318 0.359292834 -0.563259044
H 7.000636485 -2.657167412 0.526426203
H 5.880782176 -0.372228047 2.743091123
H 1.663200345 1.348093862 0.727165611
H -0.530934750 -1.491083051 0.463523929
H -2.918155182 2.897183247 -3.173669227
H -6.282531790 -0.529196958 -2.462808513
H -3.482349281 -2.013682502 -3.444348684
H -4.332038895 -1.954016743 -0.192428827
H -1.631118975 4.562541225 0.738054723

