15

C 2.117338836 -1.177441691 1.468119042
C 2.116653300 3.781802426 -1.676768466
O 1.501239365 1.481115766 -2.181441408
C 0.205780252 -0.115850340 -0.354161245
C -2.230634286 0.979538271 0.772809508
O -3.644539750 -1.146266558 -0.130356804
C -1.560251487 -2.005928294 -1.637366240
H 1.182687684 -2.445339337 2.797556866
H 3.570333512 -2.231252510 0.453777704
H 3.020677926 0.339161355 2.537499315
H 1.421470983 4.205326390 0.291977823
H -2.310756425 1.152696786 2.827655101
H -2.841434682 2.750084301 -0.105048250
H -1.837412099 -1.622369997 -3.649066551
H -1.156406639 -4.007643142 -1.340226592

