13

C -3.660699630 -0.130592415 0.426234889
N -0.873854373 -1.756089380 -0.959158217
C -0.499705608 1.207544877 0.209997025
C 1.037028898 -0.082857858 -1.757674860
C 3.614326450 -0.711059513 -1.028307170
C 5.749927089 -1.248496584 -0.506949023
H -4.181563783 -2.006339461 1.046832060
H -4.724646278 0.446376479 -1.228334170
H -4.061267012 1.160509556 1.994075875
H -1.307443680 2.958212216 -0.495978237
H 0.315102288 1.280590521 2.080723824
H 0.936380082 0.728879498 -3.663175001
H 7.641104996 -1.739931087 -0.031541324

