8

O -3.761082316 -2.984839440 0.738048582
C -3.035091850 -1.462649627 -1.169499115
C -3.658056167 1.249445453 -0.641340770
H -2.742121070 1.848381166 1.104353396
H -3.031056207 2.417950024 -2.207524995
H -5.691422415 1.453283161 -0.375374385
O -2.020342331 -2.258172603 -3.034257044
H -3.301798592 -4.684650735 0.259355840

