12

O 4.650457955 -0.364402692 2.090364319
C 3.001711104 -0.508236796 0.572261718
C 1.461798570 -2.100864601 -1.083597476
C -3.344554874 0.603411737 0.973135123
C -1.252115371 1.861014155 0.429303937
C 0.999724892 0.800658175 -0.859280938
H 0.116263548 -3.366633640 -0.197769628
H 2.259203128 -2.787836134 -2.839669016
H -3.595477074 -1.364665683 0.460915786
H -4.897212534 1.509524945 1.948884322
H -1.088266649 3.834765383 0.969153583
H 1.679853935 1.889333062 -2.463794345

