12

O 5.118541491 -0.561051655 -0.777315069
C 2.838374308 -0.610415818 -0.297073677
C 1.278912557 -2.782033182 -0.176811129
C -3.273019462 0.582959193 0.186137135
C -1.229836615 1.986210911 0.695924489
C 1.287746422 1.625914991 -0.219578258
H -0.311219581 -2.896827619 1.096898918
H 1.818307044 -4.460645340 -1.220092337
H -3.212119126 -0.904163407 -1.216514519
H -5.080902587 1.011080218 1.045586693
H -1.497661357 3.706469231 1.795190950
H 2.254261645 3.308570426 -0.912447702

