18

C -2.989121578 -0.925143090 -2.468265891
C -2.075126380 0.680861180 -0.264668880
C 0.710760029 1.391813734 -0.430418630
C 1.639773127 2.922734763 1.810955291
N 1.352777133 -2.845511558 2.777674831
C 2.512367261 -2.667185965 0.701104644
O 2.329680104 -0.758722696 -0.920404507
H -2.612713816 -0.008772146 -4.280724629
H -2.056613527 -2.764096166 -2.490631197
H -5.020045885 -1.255629185 -2.336745904
H -3.123596568 2.463266469 -0.217602190
H -2.430743281 -0.280330458 1.522366352
H 0.989650460 2.497801139 -2.153211432
H 0.616966157 4.713025596 1.878577459
H 1.337837789 1.915920280 3.578915401
H 3.649029569 3.340914789 1.612764991
H 1.823331637 -4.485110944 3.647682856
H 3.833132981 -4.062919823 -0.056980175

