18

C -3.044612592 -1.114850201 -2.158990365
C -2.350287398 0.771409391 -0.103956196
C 0.366691963 1.471991809 -0.025622967
C 1.448329263 2.885336289 2.137669247
N 1.419410520 -2.270735975 1.765751341
C 3.038511271 -2.665975747 -0.017457006
O 3.277922866 -1.104607867 -1.777028131
H -2.373103649 -0.487779131 -4.005185912
H -2.182550488 -2.939802977 -1.752091324
H -5.089074065 -1.355573285 -2.261267408
H -3.292067712 2.586238205 -0.515960087
H -2.995608422 0.140011736 1.745366185
H 1.069005370 2.103252440 -1.835313369
H 1.031814879 4.893630123 1.817861144
H 0.666573546 2.288169436 3.940622020
H 3.496163803 2.693010395 2.173619794
H 1.308931140 -3.597226261 3.142076483
H 4.231114537 -4.371218190 -0.025788582

