9

O 3.696429192 -2.202775358 1.517441707
C 2.205175971 -0.413397167 0.890670574
N 2.132172544 1.899396042 0.341268683
C -2.843549701 1.128872649 -0.167804996
C -3.025926716 -1.114064094 0.309613427
O 0.270280139 -2.079452719 1.007387089
H 3.878800972 2.674459993 0.406585744
H -2.477030214 3.072464529 -0.552600403
H -3.916909283 -2.904626349 0.577887301

