13

C 3.094207170 -0.479519743 1.218027396
C 1.116600012 1.051602882 1.258405816
C -0.804844712 0.012561690 -0.485586406
C -2.322140059 2.320019484 -0.929733575
C -1.542946074 1.547049123 1.729434226
O 2.877921779 -2.331568300 -0.638239597
C 0.213923422 -2.535216166 -1.218442493
H 4.813349814 -0.543080416 2.309987080
H -4.310396051 2.062210688 -1.372626192
H -1.468725228 3.996620104 -1.760809084
H -2.675628676 1.276242639 3.405188815
H 0.010522921 -2.921903567 -3.229293486
H -0.588494277 -4.102387584 -0.128537376

