13

C 2.877791028 -0.214854717 1.146004755
C 2.490427767 1.455514323 -0.666203500
C 0.148216303 0.734910332 -1.483028339
C -2.260470586 1.742597434 -0.528974556
C -2.394936618 0.197742094 2.002771148
O 0.729493281 -2.041861285 1.256759997
C 0.093931483 -2.116049684 -1.444468628
H 4.295572529 -0.605610036 2.558513353
H -3.858130184 1.281206685 -1.742744304
H -2.176111076 3.761678695 -0.125944312
H -1.161931291 1.241290982 3.312350974
H 1.584822669 -3.050862767 -2.504612732
H -1.749426375 -2.999719446 -1.653891573

