10

N 5.395949903 -0.152230403 1.765658990
C 3.545898125 0.133768553 0.676544025
C 1.172621585 0.435795656 -0.684661702
C -0.179913965 2.936106200 -0.075976496
O -2.493052748 2.257535293 0.433952361
C -2.874670561 -0.389275172 0.367272316
C -0.778633039 -1.578423773 -0.240655620
H 1.618780462 0.612802296 -2.708565336
H -4.766836228 -0.997905766 0.811822242
H -0.505035656 -3.587816710 -0.422467021

