10

N 5.859331536 -0.448413055 1.037486288
C 3.769085457 -0.065701714 0.618270502
C 1.128960106 0.317139791 0.110649890
C -0.098635049 2.755639283 0.266705835
O -2.590176942 2.122923109 0.006743223
C -2.947805155 -0.411193992 -0.058547155
C -0.755615381 -1.668735788 -0.025444936
H 1.097074039 1.792550814 -1.791596445
H -4.883455120 -1.046172036 -0.150238839
H -0.443653742 -3.677680217 -0.091104622

