13

N 3.903282582 -1.787519531 2.824648018
C 2.468767084 -0.863333758 1.319546166
C 2.094757138 0.520572588 -1.181114015
C -0.621347090 1.229960581 -0.434596739
C -0.342797415 -1.048424911 2.113753950
C -2.709005151 0.536368582 -1.817668430
H 2.143830321 -0.806505139 -2.761687351
H 3.356581261 2.096566835 -1.590251418
H -0.769719012 2.994968675 0.608529418
H -0.931348308 -0.349071778 3.956897192
H -1.175089965 -2.869734786 1.630513148
H -2.622129414 -1.037770956 -3.126373483
H -4.520053964 1.454049426 -1.563767662

