14

C -2.421367178 -2.380487470 -0.341177447
C -0.907032276 -0.430018008 1.187964064
C 1.892140420 -0.593493661 0.662240933
C 3.378178790 0.947393708 -0.663070523
O 2.844476914 3.127255154 -1.851699676
C -1.928548753 2.109011796 0.754135726
N -2.691997086 4.099886834 0.349739475
H -4.425168491 -2.310735014 0.135756885
H -1.710035223 -4.269388427 0.070818110
H -2.202590448 -2.032585262 -2.359447070
H -1.205087704 -0.805504586 3.200879148
H 2.795177418 -2.260973140 1.431074268
H 1.142008684 3.689592030 -1.518794826
H 5.356657300 0.468948917 -0.894918035

