14

C -1.952727666 -2.430742714 0.461981535
C -1.081530852 0.325602155 0.227637618
C 1.497289119 0.610291644 -1.077752647
C 3.672206625 0.455712274 0.466606450
O 3.893418003 2.422497820 1.832743947
C -2.999059610 1.781565930 -1.157702935
N -4.524624172 2.866375779 -2.251067706
H -3.810903112 -2.545641426 1.348145395
H -0.608688627 -3.491191820 1.609122790
H -2.066733917 -3.315903678 -1.396123840
H -0.985556992 1.154997546 2.118807664
H 1.549726959 -0.324607119 -2.908367118
H 2.221192950 3.025442568 0.258565481
H 5.148201989 -0.985693921 0.545057882

