17

C 4.364998345 0.720942516 -1.342964219
C 2.074974030 -0.584113514 -0.327279929
C 1.159415537 -0.003986793 2.267643476
O -1.147084072 -1.711313925 2.009455884
C -2.165624514 -0.875359483 -0.639483434
C -4.535903532 0.643482737 -0.335982911
O -0.207819513 0.405058241 -1.657297011
H 4.750135849 0.114705450 -3.275351327
H 6.005731623 0.205843275 -0.201199613
H 4.205052606 2.793161571 -1.349987689
H 0.114751068 -2.998561951 1.152480941
H 0.388449551 1.872255266 2.688426940
H 2.268591684 -0.759222434 3.823394410
H -2.484656808 -2.731119841 -1.513431046
H -4.185867181 2.329650190 0.790403595
H -5.164691324 1.230493994 -2.209572230
H -6.016793381 -0.484704773 0.543693217

