13

C -0.714854140 2.592444821 -2.733036439
C 0.162749960 0.789217206 -0.772548990
C -0.158698879 -2.210155286 2.253042545
N -1.481898037 -0.614282311 0.483287441
C 2.779353683 0.389249094 -0.071944236
C 2.517646135 -1.419406627 1.740749679
H 0.219433467 2.117958270 -4.508495152
H -0.058448454 4.478027457 -2.219831553
H -2.759480170 2.609518062 -2.998923909
H -0.519148414 -4.205942176 1.845036407
H -0.771372352 -1.820888750 4.189950520
H -3.368196293 -0.595605789 0.243238007
H 4.040459691 -2.299142508 2.798481113

