12

C -3.209535511 -0.609128707 -1.271046138
N -1.702140250 1.693512894 -1.186795590
C 0.686251037 1.969871469 -0.504870267
N 1.807801829 -0.233806308 0.192697584
C 4.307278702 -0.263714569 0.968223724
O 5.384185262 -2.154869666 1.605973278
H -3.316814261 -1.502930084 0.587515229
H -5.122492228 -0.138182576 -1.857722706
H -2.441174248 -1.964976512 -2.626552318
H -2.578739469 3.291679128 -1.712375970
H 0.964207357 -1.958590730 0.208703810
H 5.152176008 1.634269829 0.922814909

