11

C 0.701995064 -0.277757445 -2.514716587
O 1.730222600 -2.302193282 -2.561858848
C -1.183441534 0.427651371 -0.495734632
C -3.667941476 1.278846266 -1.675438646
H -3.390111806 2.906728953 -2.913267348
H -4.983293168 1.810838109 -0.184379652
H -4.508423437 -0.259847150 -2.760670452
O -1.562611868 -1.584319265 1.169668284
H -0.402003479 -2.905082680 0.676256673
H -0.340863450 2.044376322 0.514750568
H 1.100860275 1.178918814 -3.961990987

