15

C 3.604053313 0.467785167 0.421264702
O 2.157033025 0.764824659 2.359975835
C 0.563198403 -1.771536606 0.578936987
O 0.892737537 -3.837953616 1.367177658
C -1.938973124 -0.379481289 0.086765112
C -1.749384688 2.120635766 -1.263729798
O -3.407124292 -2.008394614 -1.418220087
H 5.135349546 -0.934726023 0.488727811
H 3.955550913 2.071278765 -0.857100591
H 2.079536755 -1.009518700 -1.219455896
H -2.774049108 -0.138961029 1.965295724
H -0.749577291 3.499949321 -0.116262603
H -3.656945613 2.800362940 -1.632762092
H -0.801950861 1.896394760 -3.082995368
H -3.557550989 -3.610486734 -0.576273985

