19

C 4.945303550 -1.511055661 0.206541151
O 2.293383984 -1.736393085 -0.084507286
C 0.932411354 -0.095809152 1.268848292
C -0.351630127 3.016077010 -0.862608934
C -2.665661221 2.235253079 0.634959713
C -1.910154612 -0.518467811 1.115714902
C -2.786940121 -2.271273092 -1.003238138
H 5.446484128 -1.440451260 2.205930822
H 5.622006180 0.203763461 -0.731216957
H 5.794335861 -3.157387687 -0.689537895
H 1.423619053 2.107552512 0.976735485
H 0.239677914 4.988471982 -0.812142891
H -0.222634191 2.232491924 -2.756571995
H -4.484583257 2.476325100 -0.312631377
H -2.735877151 3.282836400 2.411582611
H -2.602429322 -1.285513144 2.908204205
H -4.845853123 -2.421768991 -0.973338193
H -2.224982890 -1.586344258 -2.865998722
H -2.002354898 -4.164327648 -0.783792728

