9

C -3.089859968 -0.502967257 0.518699056
C -0.413504523 -0.412491176 0.272646794
N 0.650341895 1.005410152 -1.549347313
N 3.072750066 0.641690029 -1.229478512
H 4.326049597 1.501560051 -2.374697085
C 3.514507903 -0.957866306 0.741273173
H 5.390278174 -1.508537393 1.324700338
N 1.384274729 -1.651809927 1.719799155
H -3.460954747 -1.793325753 2.114587187

