9

C -2.783947645 0.135484160 -2.018265314
C -2.521640053 -1.034570553 0.540649076
C -2.900829171 -3.452034843 1.061264107
H -3.444160033 -4.789159695 -0.395995076
H -2.682049663 -4.187346080 2.959058455
H -1.979482484 0.233200197 2.064971615
H -3.342191053 -1.259784371 -3.429277891
H -1.004402985 0.991504791 -2.624830419
H -4.197196089 1.641785175 -1.998367935

