16

C -2.718895013 0.678568658 -1.932660211
C -1.617547643 -0.186643525 0.553655248
C -0.554725362 -2.597198408 0.726269787
C 1.188217419 2.706613702 1.035218219
C 3.320231000 1.293039110 1.033646647
C 4.224292721 -0.898834965 0.941896854
H -4.444007851 -0.377591563 -2.355426413
H -1.391672005 0.343813407 -3.477858933
H -3.205623891 2.681308493 -1.926124744
H -2.564702659 0.518309905 2.227908564
H -0.571194269 -3.779521583 -0.952597201
H 2.121143554 -2.158646870 0.787244823
H -0.701312117 -3.614041951 2.499871655
H 0.758788439 3.831064997 -0.624050532
H 0.578973440 3.540387117 2.807478250
H 5.976254352 -1.921035920 0.976769330

