12

N 3.039615949 0.064978630 -0.278223168
C 0.944094681 1.290016115 0.268200363
O 1.079711689 3.781077565 0.157683038
C -1.325489279 0.012903239 0.891630573
C -2.521692946 -1.471444318 -1.363768687
N -1.040779664 -2.716051183 0.663132015
H 4.457523191 0.909192025 -1.215123094
H 2.857641181 -1.841780333 -0.190418971
H -2.582638749 0.917381701 2.238852365
H -1.223319668 -1.308198550 -2.988916770
H -0.581536702 4.480168838 0.415692844
H -2.258140516 -3.515258559 1.906670486

