12

N 3.562060329 0.201536041 -0.112265908
C 1.238025725 1.029855120 0.290544277
O 0.527919049 3.258749856 -0.320556472
C -0.893297935 -0.366670760 1.329889015
C -2.455993858 -0.213018659 -1.146320982
N -1.968921995 -2.596441120 0.306775871
H 4.734297015 1.188993303 -1.235393355
H 4.013092129 -1.570780266 0.394063247
H -1.794226604 0.572022517 2.917999355
H -1.187549534 -0.416799695 -2.779174159
H -1.696854421 2.492496035 -0.656830685
H -3.431543578 -3.113935910 1.432366898

