13

O 3.794345785 1.316876758 -2.733770654
C 2.220512062 0.422997600 -1.389128490
C 1.359629563 -1.928194127 -0.439309470
C -1.411420153 -1.725461568 0.320525027
C -1.789431481 1.172390018 0.576404414
N 0.822638921 2.060623034 0.669009951
H 2.152729211 -3.685999264 -1.110566457
H 1.861896827 0.077803993 1.584451697
H -2.698525145 -2.481397050 -1.103405075
H -1.811992051 -2.714484960 2.089655520
H -2.756143424 1.944875117 -1.078415242
H -2.823382884 1.715755065 2.271259864
H 1.192448838 3.933560586 0.671870694

