16

C 3.851216847 0.553481469 0.407166778
C 1.641054059 -1.219994563 0.853977119
C -0.915732292 -0.283324087 0.022016557
C -3.070905618 -2.119880008 0.188690609
C -1.325456738 2.096481740 -0.967285116
C -2.635732910 3.935668028 -1.962488423
H 4.185290323 0.858988918 -1.608809322
H 3.519871475 2.397423082 1.267135349
H 5.577510651 -0.237106469 1.206846699
H 2.014429359 -3.067481888 -0.005781882
H 1.451528891 -1.599491498 2.883839475
H 0.206419679 1.243861067 -2.337786217
H -4.802251283 -1.136519615 0.724721761
H -3.412472821 -3.014096974 -1.641544368
H -2.663258925 -3.617658264 1.547544345
H -3.604026951 5.231025624 -0.680262117

