14

O -4.777078317 -0.750085230 -1.395572513
C -3.994231056 0.978006704 -0.120273585
N -2.032175418 0.811393237 1.511419867
C -0.527787751 -1.458803505 1.715424609
C 1.552538418 -1.617775940 -0.294963326
C 3.360185725 0.456591280 -0.085204387
C 4.801243700 2.186669203 0.147855233
H -4.854281698 2.878757737 -0.153906401
H -1.368743372 2.417650465 2.277007655
H -1.792413714 -3.069515951 1.502375827
H 0.303088808 -1.526336666 3.600414928
H 2.546551462 -3.418274999 -0.107873447
H 0.678892746 -1.596138784 -2.165207716
H 6.104210448 3.707862469 0.332082460

