16

C 4.549642162 1.109786831 0.324533798
O 2.091145399 1.336836083 0.346099976
C 0.543324153 -0.492711429 0.908150276
C -2.219459693 0.150636759 0.685834428
C -2.939661134 1.218206920 -1.909805598
C -3.701662902 -2.119883995 1.257313328
N -4.872952910 -3.889240310 1.697345410
H 5.526447246 2.778222530 -0.321493455
H 3.869114444 -1.760777034 -1.853980708
H 5.425475022 -0.222986832 1.606511434
H 1.174675037 -1.923142624 2.232981685
H 2.484180106 -2.347108614 -1.667848335
H -2.733968849 1.542984360 2.138270501
H -4.936476319 1.720230787 -1.958166959
H -1.825220947 2.904869481 -2.295961986
H -2.562527754 -0.171818170 -3.381627994

