14

C -0.379437296 -1.888490584 -1.859853221
C -2.933279661 2.438209041 1.122827982
C -0.447198642 2.195687600 0.982900868
C 0.961923982 0.377466463 -0.645403303
C 2.577368511 -1.668046076 0.654410985
O 1.471029882 -3.607825395 -0.875854573
H -2.258949923 -2.288516068 -1.093531124
H -0.457902523 -1.931063713 -3.921737212
H -4.203552939 1.277017256 0.011228828
H -3.795244161 3.824432928 2.356646005
H 0.733697846 3.425687487 2.132783133
H 2.083003306 1.423958259 -2.027625600
H 2.139135410 -1.934861231 2.659823592
H 4.623226302 -1.551083972 0.401933692

