15

C -3.661835015 -0.891648734 -1.627008859
C -1.299607817 0.118830533 -0.466428022
O -1.260929678 2.659760702 0.097665676
C 2.639644624 0.399047022 2.653237897
C 3.619119381 0.676417791 0.275854302
C 0.671361318 -1.446959155 0.030598049
O 1.194880197 -3.675330551 -0.053953665
H -5.280539793 -0.569898446 -0.382096708
H -4.066655207 0.034163206 -3.436542679
H -3.478229546 -2.910850729 -1.969632532
H -2.122613516 3.551282616 -1.226723934
H 1.512435444 1.876096626 3.500772127
H 3.131394693 -1.217179324 3.803420401
H 3.312604103 2.405967970 -0.767577461
H 4.980515630 -0.657889234 -0.460408564

