13

C -1.391763052 2.386344015 -0.456719441
N -1.061857802 -0.204340489 0.393295924
C -2.901774790 -1.707052102 0.608334096
H -4.811578536 -1.113878353 0.161976287
H -2.435392801 -3.599790752 1.257452865
C 1.695065115 -1.425017394 1.144731136
O 1.456196117 -3.617155653 1.795928113
C 3.553926135 0.295949630 0.854960287
H 5.461236634 -0.281703401 1.291430916
H 3.239272184 2.201893063 0.221903585
H -3.377515950 2.756299723 -0.855191476
H -0.728834712 3.667074432 1.008983284
H -0.274843374 2.682397297 -2.157268542

