15

C -1.489084741 2.538267167 0.070624375
N -1.090462019 -0.105808449 0.718270481
C -2.286946632 -1.829190619 -0.598354868
C 1.406355574 -1.037777419 1.611227019
O 1.426670337 -2.905195383 2.936539590
C 3.253211239 0.006560978 0.020739952
H -3.458005678 3.021983859 0.427512004
H -0.302784827 3.719384791 1.259254020
H -1.050326447 2.887879974 -1.919023267
H -3.896146031 -1.284337167 -1.739910527
H -2.047774257 -3.782966913 -0.059623524
H 0.181169763 -2.070704081 -2.940670078
H 5.100347094 -0.864822333 0.051808505
H 3.154083879 1.942952056 -0.614054032
H 1.615429241 -1.459295004 -2.340577418

