16

C -3.376142024 -0.267573805 -1.180378665
C -2.040557771 1.023358336 0.970864806
N -0.937124275 -0.532378368 3.007431702
C 0.728137176 1.047186441 1.326582259
C 2.148678206 -1.067172505 0.024170088
C 3.788287777 -0.427930975 -2.119610741
O 4.855175727 -0.815386190 0.295526483
H -3.649425845 1.091523063 -2.706863430
H -5.233353238 -0.935703900 -0.581728812
H -2.277053386 -1.848005337 -1.897591146
H -3.028104399 2.652340163 1.732187160
H -1.297020801 -0.122600763 4.839499108
H 1.620634019 2.685144562 2.183991499
H 0.013769130 -2.259902818 2.074900047
H 4.207786133 -1.869760582 -3.524242487
H 3.930696763 1.505446953 -2.822997607

