12

O -2.904704621 0.574872866 2.221030017
C -2.287523527 -0.690088599 0.280130223
C -0.424849569 0.648119785 -1.524482448
C 1.298229961 1.910482801 0.389092001
N 2.587457588 -0.075931596 1.332766010
C 1.917043476 -2.059394183 -0.029581357
O 0.963749514 -1.439579094 -2.412181333
H -3.425587974 -2.329041415 -0.203277612
H -1.255638974 1.768510077 -3.037799620
H 2.012976179 3.820885401 0.484954935
H -1.308287821 1.793640600 2.336118042
H 2.785370949 -3.897700425 0.157552514

