13

C -3.479135499 -0.767491327 -2.633477106
C 1.497898594 0.647656367 1.674019708
O 1.739411980 1.537493628 4.064234241
C -0.740910194 0.676775157 0.495468483
O -0.999996238 -0.047106753 -1.931880491
C 3.813994610 -0.322660739 0.521551485
O 5.787016914 -0.288505262 1.686603772
H -4.835313685 0.727645072 -2.183109582
H -4.040545749 -2.513643469 -1.681067234
H -3.455198735 -1.072306589 -4.665730684
H 3.502652895 1.304052188 4.495960807
H -2.424317324 1.364946799 1.454270279
H 3.679446280 -1.086050718 -1.406032071

