18

C -1.731234228 2.377472166 -0.289045705
C -0.328887084 -0.135643029 -0.017984108
C -1.496059380 -2.103283979 -1.783682650
C -0.479371777 -1.061346102 2.716268729
C 2.434731435 0.204465986 -0.781461071
O 3.596616919 2.021333304 0.802478586
H -1.654217079 3.063598161 -2.236708357
H -0.902314064 3.819740038 0.926695519
H -3.718949058 2.157657183 0.225623492
H -1.416474849 -1.488628448 -3.754624895
H -0.519155841 -3.918220867 -1.641454530
H -3.479060402 -2.420554010 -1.306353516
H -2.447192591 -1.319798048 3.286364084
H 0.487563343 -2.873925235 2.937452422
H 0.396340499 0.289810628 4.001905328
H 3.409448447 -1.623361442 -0.631882653
H 2.519601964 0.808428559 -2.766945061
H 5.328613746 2.202255154 0.313354386

