11

N 4.387178155 0.107051322 -0.464285508
C 2.034582363 0.210423064 -0.254796535
C 0.187693230 -1.908948910 -0.110788690
N -1.954106769 -1.036916951 1.501699456
C -2.205249406 -1.059964731 -1.268148469
C -1.909676379 1.329750669 0.079183191
O 0.558452356 2.330941005 -0.093266016
H 5.165328143 1.863233846 -0.518318787
H 0.764390230 -3.858854705 0.031765143
H -3.661265810 -1.996761308 -2.341400998
H -3.359340148 2.723581194 0.414101903

