14

C 3.607492539 -1.063562108 0.451491967
N 2.757078120 1.150445706 -0.926035967
C 0.355158586 1.902462765 -0.771459355
N -1.314589944 3.229941889 -1.808020698
N -2.914543310 -2.375850177 -0.749300351
C -3.616964564 -0.435357637 0.459008466
C -1.961384520 1.819588051 0.645076022
H 2.730071345 -1.062015065 2.312305566
H 3.090388978 -2.818446069 -0.505854456
H 5.650125305 -0.975708986 0.695847407
H 3.627423952 1.544093364 -2.572443374
H -4.282607817 -3.724855057 -0.759838277
H -5.452911634 -0.302352967 1.409278375
H -2.233550455 3.006587202 2.301940418

