14

C 4.174602391 -0.240835844 0.680386839
N 2.649353054 0.554759226 -1.439987785
C 0.066869017 0.708575468 -1.312230262
N -1.397956081 1.748017736 -2.865363471
N -5.316952548 0.288519001 -1.069926706
C -3.922687839 -0.682386604 0.667117447
C -1.344306549 -0.102847834 0.900221646
H 3.383887936 -1.953308436 1.507034380
H 6.061470853 -0.697318974 -0.004481051
H 4.345779226 1.194701807 2.163739002
H 3.452489851 1.723622467 -2.703781891
H -6.957669745 -0.696978030 -1.316647591
H -4.664774029 -2.055312016 2.027751607
H -0.520127803 0.221703311 2.751365611

