13

O 1.978168350 0.650611993 -2.805174088
C 0.600679420 0.099703349 -0.685362753
C -1.711863609 -1.529019586 -1.202672010
O -3.358122446 0.475271563 -0.412431517
C -1.286646337 2.058148797 0.307444589
C 1.533706390 -1.686897643 3.291811805
O 2.404968702 -0.841400122 1.178267993
H 3.179476885 1.960613210 -2.428501386
H -1.865291078 -3.182616967 0.020934462
H -1.957540269 -2.021914565 -3.189939505
H -1.273999496 3.853174415 -0.714339927
H -1.210796888 2.350040089 2.349428366
H 3.279065206 -2.246391748 4.317249010

