13

O 1.968829077 0.353667894 -2.506343551
C 0.448764715 0.065135099 -0.551497181
C -1.865683063 -1.568688981 -1.028798177
O -3.369962317 0.700563691 -1.051157209
C -1.428980206 2.135493775 0.179616011
C 2.496924192 -1.970521516 1.999018567
O 2.742509182 0.422266106 2.121689798
H 3.031041751 1.807817174 -2.237187365
H -2.356627864 -2.808099403 0.538046375
H -1.866633237 -2.580146106 -2.824902545
H -1.122832253 3.985574334 -0.682079694
H -1.745837105 2.306318138 2.209122929
H 3.104142442 -2.884098235 3.830499799

