9

C -3.868702767 -0.321879715 0.309680040
C -1.135329314 -0.094791743 0.156199300
C 1.123845505 0.093699198 0.029304077
C 3.711999552 0.308865474 -0.116131683
C 5.968780372 0.496120476 -0.242839634
H -4.398492191 -1.836659478 1.604138864
H -4.667390902 -0.742964950 -1.543958835
H -4.704471619 1.434664049 0.993185514
H 7.969761382 0.662946708 -0.355917557

