15

N -5.617989302 -0.011176558 0.477154977
C -3.354182065 -0.903643808 1.647679855
C 2.882817738 -1.332361590 -1.695607051
C 2.612095441 1.321595688 -0.677529536
O 4.952137197 2.057496256 0.311283586
C -1.236605104 0.363848170 1.394846707
N 0.695462678 1.593290891 1.303674262
H -6.363802712 -1.324031431 -0.691088831
H -6.940510408 0.446608896 1.776899422
H -3.303799000 -2.620937318 2.775102706
H 1.112823697 -1.977119646 -2.530570048
H 3.415179911 -2.612372002 -0.170021381
H 2.025085619 2.619176641 -2.187002475
H 4.354970910 -1.372319924 -3.134462701
H 4.694968791 3.575630490 1.272327769

