17

C 3.334645282 -1.498110545 -0.151563651
C 0.779350341 -0.297254505 0.143387675
C -1.019479824 0.076986516 -2.089539567
C -3.054367434 0.864066102 -0.207354375
C -2.903258924 -1.364675340 1.612306676
O -1.949847912 3.024281161 0.988475107
C 0.579715951 2.262353528 1.453267590
H 4.461896717 -0.354973053 -1.454965055
H 3.186516851 -3.395443290 -0.939868686
H 4.344668936 -1.604339647 1.642762088
H -0.370678623 1.531750845 -3.414762055
H -1.459804946 -1.656365886 -3.102075555
H -4.948514101 1.338256212 -0.851978015
H -3.225775099 -3.066885056 0.444333779
H -0.387288106 -1.559715655 1.761332840
H 1.895114660 3.618609571 0.605108144
H 0.948659201 2.136125001 3.482611178

