19

C 5.261499404 0.577122169 0.510003671
C 2.644461782 -0.417760923 -0.138019851
C 0.689145342 1.683864992 -0.433887619
C -1.890578221 0.583894683 -1.166654435
C -3.299839343 -0.481108492 0.946241429
C -5.256868536 -2.291173420 0.206537673
O 0.437546450 3.125161110 1.787198051
H 6.603784173 -0.963720129 0.787356261
H 5.198787539 1.699782231 2.236517381
H 5.988649161 1.784094138 -1.000112456
H 1.981845228 -1.701882623 1.348087569
H 2.711827759 -1.519049126 -1.890697803
H 1.323422070 2.987531790 -1.911372616
H -1.845387934 -0.535492523 -2.918941988
H -3.191310482 2.189858872 -1.540582329
H -5.892169911 -2.258015114 -1.769771885
H -6.843864277 -2.394317827 1.515385401
H -4.203639450 -4.074719953 0.480160549
H -0.756818910 2.204253123 2.828630389

