13

C -3.878614267 1.716125546 -0.118967822
O -2.693942503 -2.089612151 0.077203230
C -0.388491692 -1.443902485 0.085661191
N 0.045661868 1.022799053 0.125040230
N 2.589696630 1.385700206 -0.141540600
C 3.762028370 -0.887457831 -0.122627711
C 1.976677016 -2.749729882 -0.022057469
H -4.946039391 1.098758730 1.504990490
H -3.225345356 3.643174631 -0.044083285
H -4.584467452 1.090805118 -1.926593321
H 3.355876167 3.039052262 0.376709665
H 5.797265428 -1.008292967 -0.208013304
H 2.268060217 -4.760822930 -0.090884753

