12

O -3.321135725 2.462186189 0.351518898
C -1.933808503 0.338898664 -0.305334728
H -3.042601886 -1.023106983 -1.359689543
C -0.004002629 -0.748502603 1.409852493
H 0.069178735 -2.646503272 2.168537848
C 0.806241749 0.437824807 -1.074000199
H 1.543345033 -0.395026289 -2.785075320
C 2.134430332 2.355289616 0.583845607
H 1.593810925 4.336646520 0.363290115
H 4.188079049 2.171505663 0.585479124
O 1.097813885 1.236034634 2.858549742
H -2.719819997 3.013457547 1.979092974

