12

C -2.540785529 -2.339199184 -0.777327201
C -0.226108906 -1.463858711 -0.441754794
C 0.828493917 1.124450992 -0.886557623
N -0.252465067 3.103321697 -1.699390849
H -2.111168200 2.776566563 -2.076478384
C 3.479223391 0.878991235 -0.155256686
H 4.869006350 2.363381272 -0.215728545
C 3.813653155 -1.503672916 0.579540395
H 5.473852219 -2.472617344 1.262576612
O 1.700474683 -2.974328840 0.452630754
H -4.008923866 -1.103112148 -1.477928478
H -3.013602130 -4.282631401 -0.362254923

