17

C -0.758337834 2.660100305 -0.846049321
C -0.000085869 0.000890817 -0.000556751
C 2.200938468 -0.937052560 -1.624642374
C 0.809719128 0.065550895 2.774688195
C -2.252064952 -1.787305595 -0.304332021
H -2.339926407 3.373423559 0.274797019
H -1.334149573 2.673143270 -2.829873867
H 0.813132030 3.983769154 -0.634548565
H 3.842211414 0.303802709 -1.443482229
H 1.675965634 -1.003437523 -3.621465344
H 2.780875479 -2.837829784 -1.061096091
H 2.407319937 1.344896464 3.052819182
H -0.734544122 0.710700012 3.985276324
H 1.381393388 -1.809600471 3.425606758
H -1.759802937 -3.707457425 0.276690676
H -3.852023817 -1.169285198 0.846685289
H -2.880619967 -1.864308590 -2.270516861

