8

C 3.069554294 1.495129294 -0.534928780
C 0.843192584 1.007917932 -0.663074813
C -1.479643386 -1.442746748 -0.142660452
C -3.719210086 0.047943826 -0.929114482
N -1.830584254 1.560956373 -1.194536853
H 5.048534999 1.813582691 -0.379546560
H -1.185873006 -1.697349152 1.864471862
H -0.759885199 -2.816643025 -1.474360316

