10

N -1.540155062 2.996134088 -1.858721312
C -0.944083399 0.963877505 -0.814431690
O 1.112907487 -0.502544033 -1.544685529
C 2.928845532 -0.920022045 0.212787149
O 3.066908318 0.134502240 2.190743793
C -2.627255712 -0.191074517 1.160054623
O -2.113107929 -2.486816690 1.784028583
H -0.262684441 3.498522049 -3.210073195
H 4.259147755 -2.330222985 -0.515523561
H -3.831635335 -1.465855094 2.742497901

