15

C -3.289228776 -1.246087447 -0.343138926
C -0.709510146 -0.192656728 -0.039635267
O -1.303672146 3.279373080 -0.084895266
C 1.016508306 -0.006061996 2.045515581
C 3.383179137 -0.476420913 0.422076264
C 1.544839239 -0.519464641 -1.811867330
O 1.710727657 -0.888251308 -4.026847634
H -4.524555594 -0.612575113 1.175776351
H -4.103213659 -0.711418391 -2.155327982
H -3.155533166 -3.306673802 -0.264364257
H -0.662700949 4.217630586 -1.512439413
H 0.236009634 2.505047105 1.483920403
H 0.679306275 -0.642953897 3.958320515
H 4.830432126 0.993161136 0.370479484
H 4.313867515 -2.310625996 0.630771267

