14

C -4.395116139 0.577890003 -0.190297745
O -2.069120188 -0.531253868 -0.825179507
C -0.140702563 0.084779067 0.876152035
C 2.251636494 -1.106130532 -0.107554386
C 3.964253726 0.353372190 -1.754196195
O 4.444743389 -0.641423861 1.490610921
H -5.044704921 -0.047038987 1.678203845
H -4.267222158 2.647179945 -0.191806332
H -5.765399373 -0.009896269 -1.607649181
H -0.576140211 -0.638399241 2.779961645
H 0.125662611 2.145943375 0.987218930
H 2.058668169 -3.148395217 -0.303798154
H 4.323187928 1.051687655 2.153258921
H 5.217616997 -1.029651483 -2.670588549

