10

N 4.033554632 -0.220514617 -0.329570466
C 1.740408394 0.172046147 -0.053905742
C -0.476644373 -1.393278480 -0.726803351
C -2.640544323 -0.071928967 0.374705233
C -1.696718059 2.361342503 1.576609202
O -2.159917371 -0.005596462 -2.275667726
O 0.736361378 2.394644939 1.147748897
H 5.103285807 1.216042389 0.373734613
H -0.313139864 -3.407262620 -1.023161993
H -4.380911616 -0.960976814 0.972085739

