17

O 6.976656976 1.303065903 -0.477768798
C 4.406065703 1.154400922 0.143650612
C 2.890220551 0.369569808 -2.106054356
C -4.043021422 -2.619573200 -0.084987636
C -3.567220736 0.195276531 0.274423722
C -0.803269229 0.836116788 0.587234907
O 0.477940480 0.237544262 -1.775888966
H 7.089821316 0.801503374 -2.225554135
H 3.746866832 2.993014055 0.862702608
H 4.121886289 -0.229493500 1.675188692
H -3.079807740 -3.324218756 -1.765169381
H -3.365548031 -3.700165842 1.539254683
H -6.056093108 -3.003870362 -0.301024943
H -4.555839046 0.881450279 1.955035532
H -4.313412431 1.261889791 -1.329221148
H 0.058711069 -0.265794704 2.105916028
H -0.523173796 2.843757325 0.970049937

