16

C 3.625127217 -0.483224400 0.277838987
C 0.995660923 0.161842079 -0.678462456
C -1.007980331 -1.881370530 -0.263302136
C -3.477519122 -0.361672642 -0.310343259
C -3.029835671 2.261555402 0.549067636
C -0.246719789 2.448686722 0.617431048
H 3.588165213 -0.883697031 2.305456461
H 4.940905043 1.076282818 -0.032594544
H 4.390196577 -2.145598009 -0.675946418
H 1.106602416 0.568936159 -2.708503221
H -0.937832487 -3.394507724 -1.662091076
H -0.755710605 -2.749803053 1.599435090
H -5.163550685 -1.259431730 0.463471640
H -3.983795025 0.109296770 -2.290825389
H -0.045326971 2.247453472 2.700103917
H 0.528400986 4.311413063 0.190098644

