16

C 5.002246592 -0.812801347 -0.271920459
C 2.352918841 0.075209871 0.095511842
C 0.109354010 -1.367530262 -0.684886731
C -1.918160663 -0.001100255 -0.048120364
C -4.648780199 -0.581881067 -0.408005476
C -0.933245234 2.363205509 1.164524147
N 1.800609362 2.188859641 1.141926896
H 6.326681329 0.589626166 0.439710394
H 5.305232826 -2.599079499 0.718927237
H 5.380558141 -1.153333793 -2.273020862
H 0.129857803 -3.194508522 -1.604041694
H -5.566521100 0.865930109 -1.560060643
H -5.638823873 -0.624987534 1.404057251
H -4.914754351 -2.403790250 -1.330782931
H -1.539634404 4.064970043 0.153469988
H -1.605073371 2.571416289 3.111995464

