17

C 4.778049882 -1.287312239 -0.338462553
C 2.019522096 -1.688490853 0.270125295
O 0.756109564 0.659270832 0.079990576
C -1.843853495 0.511002013 0.594506100
C -2.861262274 3.181663657 0.874424919
C -3.232500767 -0.788151174 -1.559263179
O -5.190257882 -1.902145386 -1.325516529
H 5.620501750 0.052529038 0.981564416
H 5.805110361 -3.070526520 -0.211070163
H 4.995028859 -0.541859937 -2.247694488
H 1.182694789 -3.069687973 -1.037805122
H 1.788831870 -2.447605100 2.189200283
H -2.198143110 -0.573358912 2.329284982
H -4.876963060 3.136379923 1.297447709
H -1.869487611 4.141817495 2.402468330
H -2.565753385 4.250353215 -0.865257574
H -2.307627586 -0.563878062 -3.433942983

