17

C 3.833061757 -1.489625675 0.429166289
C 3.403388738 -0.613284592 -1.967060861
O -0.516236044 0.290033767 -2.356780194
C -1.775696365 0.455986530 -0.352660784
C -2.157196864 2.979386390 0.932918425
C -3.850395365 -1.510450665 -0.049121087
O -5.726945790 -1.209609894 1.182007553
H 4.782268922 -0.294079709 1.796817400
H 1.339629042 -1.183063173 1.517086325
H 3.960378124 -3.508240494 0.763213157
H 3.820725644 1.318729635 -2.473684076
H 3.042123899 -1.896643675 -3.510195907
H -0.309007940 -0.829427196 1.710960225
H -3.073366627 2.774430474 2.764020256
H -0.344951514 3.933813942 1.143102476
H -3.361418733 4.146131702 -0.269613217
H -3.495689633 -3.243392449 -1.172972678

