15

C -3.219359120 1.969971039 -0.399334978
C 0.744582499 -0.070363385 1.536503903
C 3.210303703 -0.876297355 0.319417875
C 4.363488681 1.199601678 -1.097427285
N 5.185291209 2.812277965 -2.291843498
C -1.223497283 -2.053580271 1.432753233
N -1.311749534 -0.016339290 -0.464218214
H -3.523653119 2.478324506 1.567046602
H -2.499305304 3.614549192 -1.406175596
H -4.976072298 1.311143972 -1.256680893
H 3.067336209 -2.501538469 -0.992893097
H 4.514625953 -1.445025814 1.813410272
H -2.772376398 -2.033413472 2.778348348
H -0.904457071 -3.902727286 0.568187223
H -0.891995593 -0.622533630 -2.235555586

