9

C 3.250020210 1.778789450 -0.783322810
C 3.347711529 1.113939259 2.003995463
O 1.945633540 2.811251712 3.523557273
H 2.635744022 4.473788631 3.314802610
H 5.317083015 1.011437452 2.648838841
H 2.504214888 -0.740461516 2.326170316
H 4.109876456 3.624731943 -1.135897177
H 1.297890907 1.840566657 -1.444491815
H 4.279941942 0.384825075 -1.904044428

