10

C -2.955198973 -1.536326174 -1.145724868
C -1.445988233 -3.673764742 -2.093497239
H -1.507190320 -3.787844409 -4.149534702
H 0.520059848 -3.482338585 -1.494312971
H -2.151179145 -5.447294839 -1.306985932
C -4.402524886 0.385535915 -1.489796563
H -5.422760865 1.626067152 -2.734996708
C -3.779074323 -0.200016002 1.215623740
H -2.439420658 0.986509621 2.238043241
H -5.203630057 -1.063449121 2.429569648

