17

C 4.362560617 -0.525876558 1.494465188
O 1.779648803 -0.073250377 1.061189727
C 1.088772566 -0.383812787 -1.498659000
C -1.707284613 -0.026623255 -1.899479190
C -3.757440492 -1.295650334 -0.411422517
C -3.547414951 1.512954949 -0.390278239
O -2.297633940 2.406741246 2.572359017
H 4.858505992 -2.480977587 1.023028711
H 4.720491961 -0.203225815 3.494496800
H 5.549686947 0.750901214 0.373213426
H 2.121054662 1.000982353 -2.653877304
H 1.660003269 -2.274677018 -2.143367225
H -2.095639319 0.210187245 -3.904814072
H -5.356781474 -2.154472597 -1.359788924
H -3.178115280 -2.230022544 1.316301110
H -3.332969587 3.524969559 1.158690468
H -0.489356334 2.360776549 2.262747952

