8

O -0.729353007 2.384791000 -0.184696654
C -2.918225253 2.081751949 0.963881153
C 1.124749267 -2.345756080 0.002565757
C 0.716845911 0.276506767 -0.404952926
N 2.795109879 -0.274184596 -1.300348193
H -3.696708323 4.028753556 0.891329351
H 0.281268632 -3.737122573 -1.243971257
H 1.789741641 -3.028757412 1.817032367

