8

O -0.533926923 2.546139520 -0.302350530
C -2.364727022 1.555883082 0.864492368
C 0.526466851 -1.992918248 0.225459369
C 1.332301893 0.349543265 -0.735591314
N 3.351922066 -0.005296317 -1.691688401
H -3.762470358 3.065547734 1.218351370
H -0.333291167 -3.357980773 -1.031706655
H 1.243211965 -2.649626006 2.024887614

