15

C 0.035697626 2.740158760 0.254421500
C -1.830227512 0.598420309 0.914480556
C -1.775192451 -1.680027393 -0.890000344
O -0.091169024 -3.667637665 -0.120204156
C 2.159393784 -2.804009752 0.769991322
C 3.099723696 -0.643572178 -0.032132620
C 2.503778607 1.664918522 -0.702648229
H -3.746921767 1.367721125 0.931478416
H 0.269948303 4.020011834 1.861357443
H -0.751844641 3.892287418 -1.272610094
H -1.479976431 -0.096276689 2.826845410
H -1.292517073 -1.081880527 -2.813106270
H -3.616750912 -2.598101773 -0.952898121
H 3.012229660 -4.043002298 2.157722359
H 3.549417778 2.696125061 -2.136073695

