12

N -1.870153097 -2.856361232 1.050757929
C -1.728045825 -0.369426358 1.568006507
O -2.346146441 0.651848573 3.516429490
C -0.606640069 1.148425853 -0.634149172
O -0.083113443 0.015659971 -2.743016045
C 3.027307444 1.381519187 -1.766380960
O 3.754302338 3.187440663 -2.809983365
H -1.498147848 -3.428863644 -0.724985699
H -2.723462822 -4.017856960 2.285046531
H -1.243121182 3.124875403 -0.638352452
H 1.703599572 1.685770025 0.382603664
H 3.625137365 -0.565132708 -1.503083322

