19

C 2.548089756 3.521398790 0.551091589
C 0.584748726 1.536373229 1.098068791
C 1.138874837 -4.261155457 -1.413035850
C -0.709907442 0.099388690 -0.996129121
C -1.189519479 -2.699309703 -0.752577193
C -2.157483762 1.981729236 0.532196463
O -4.016789473 1.050529801 2.157004018
H 2.734240516 4.855809201 2.115861014
H 4.399291281 2.668711465 0.221843000
H 2.054824939 4.602295544 -1.137335372
H 0.905004052 0.418999695 2.791121064
H 2.715463233 -3.797040667 -0.162813625
H 1.753847238 -3.902855957 -3.351732507
H 0.764092504 -6.281935600 -1.235090470
H -0.239268410 0.715635882 -2.898516052
H -2.763519082 -3.227323314 -1.984992850
H -1.806462562 -3.117525653 1.171302103
H -2.650876287 3.753083861 -0.389536635
H -3.989078548 2.034575862 3.677770641

