19

C 3.166552424 2.449823657 0.013672773
C 1.062153941 0.648609356 0.613710291
C 1.798300173 -2.832209360 -0.579698301
C -1.378776249 0.550626622 -0.815866804
C -1.891618005 -2.219486451 -0.828092444
C -3.417859750 1.957650327 0.312023150
O -4.281037795 1.642948642 2.702150377
H 3.103611694 4.198829493 1.108878648
H 4.975656842 1.543264417 0.446981645
H 3.171230403 2.940229602 -1.991901254
H 0.825170417 0.301374335 2.634205199
H 3.423005323 -2.741686736 0.724352735
H 2.486126581 -2.459806475 -2.483048538
H 1.289676607 -4.850515984 -0.483758039
H -1.096528324 1.238626298 -2.740313509
H -2.774051659 -3.113907942 -2.463454270
H -2.599524038 -2.992321735 0.945210885
H -4.401264760 3.481847256 -0.632340175
H -3.428719288 0.249745770 3.498233487

