19

C -4.659264929 -1.267822643 0.532516772
C -2.031053299 -1.780261207 -0.525008380
C -0.022443994 0.092045120 0.397877357
C 2.621717321 -0.640310945 -0.531823752
C 4.720979510 1.025140461 0.520671704
C -0.662025523 2.698944098 -0.554302498
O -1.096142971 4.513636983 0.733673110
H -6.012460239 -2.674526682 -0.131140530
H -4.649675003 -1.322118726 2.595695528
H -5.359407967 0.590384910 -0.030672882
H -1.423860730 -3.684645237 -0.000264089
H -2.083204883 -1.748658712 -2.595751162
H -0.038878696 0.172703790 2.464767970
H 2.647364873 -0.585427497 -2.602620600
H 2.963022684 -2.611241757 -0.012366916
H 6.565744402 0.404920650 -0.159561331
H 4.751297558 0.961235744 2.583413763
H 4.480354106 3.000124112 -0.028989363
H -0.712062240 2.855877537 -2.656114702

