23

C     3.41442   0.79058   0.00440
C     2.20908   0.00592  -0.46046
O     2.30861  -1.18735  -0.82622
C     0.95025   0.68812  -0.47566
C     0.37880   0.21867   2.20661
C    -0.85057  -0.13201   2.15584
C    -1.43838   0.25506  -0.51147
C    -1.88656   1.65274  -0.19431
C    -2.37537  -0.78635  -0.61790
N    -3.19854  -1.61761  -0.71586
N    -0.14605  -0.05757  -0.66009
H     3.62667   1.57398  -0.74045
H     4.29635   0.13162   0.08960
H     3.23655   1.29656   0.96724
H     0.83482   1.71489  -0.11068
H     0.72574   1.26470   2.29314
H     1.20989  -0.50917   2.02122
H    -1.68945   0.59946   2.21881
H    -1.18636  -1.16104   1.90634
H    -2.87793   1.66466   0.29635
H    -1.19899   2.24808   0.41520
H    -1.98590   2.11775  -1.18214
H     0.07223  -1.01993  -0.94720
23

C     3.41536   0.79041   0.00484
C     2.21006   0.00453  -0.45544
O     2.30852  -1.18531  -0.82673
C     0.94727   0.68307  -0.45403
C     0.38408   0.22250   2.18297
C    -0.85609  -0.12883   2.13099
C    -1.43557   0.25134  -0.48768
C    -1.88740   1.65168  -0.19327
C    -2.37613  -0.78632  -0.61248
N    -3.19808  -1.61662  -0.71731
N    -0.14650  -0.05616  -0.66639
H     3.62599   1.57362  -0.74091
H     4.29696   0.13199   0.08939
H     3.23710   1.29699   0.96716
H     0.83613   1.71472  -0.11183
H     0.72581   1.26396   2.29341
H     1.20906  -0.50970   2.02311
H    -1.68856   0.59917   2.22042
H    -1.18631  -1.16061   1.90682
H    -2.87812   1.66569   0.29672
H    -1.19950   2.24986   0.41358
H    -1.98613   2.11374  -1.18335
H     0.07183  -1.01991  -0.94670
23

C     3.41629   0.79023   0.00529
C     2.21105   0.00314  -0.45043
O     2.30842  -1.18327  -0.82724
C     0.94429   0.67802  -0.43241
C     0.38937   0.22633   2.15934
C    -0.86162  -0.12565   2.10615
C    -1.43276   0.24762  -0.46389
C    -1.88824   1.65063  -0.19223
C    -2.37689  -0.78629  -0.60706
N    -3.19761  -1.61563  -0.71876
N    -0.14694  -0.05475  -0.67269
H     3.62531   1.57325  -0.74138
H     4.29757   0.13236   0.08918
H     3.23765   1.29741   0.96707
H     0.83744   1.71454  -0.11299
H     0.72588   1.26323   2.29367
H     1.20823  -0.51023   2.02501
H    -1.68768   0.59887   2.22203
H    -1.18626  -1.16017   1.90730
H    -2.87831   1.66673   0.29710
H    -1.20000   2.25164   0.41196
H    -1.98635   2.10973  -1.18456
H     0.07144  -1.01988  -0.94619
23

C     3.41722   0.79006   0.00573
C     2.21203   0.00174  -0.44541
O     2.30833  -1.18123  -0.82775
C     0.94130   0.67297  -0.41078
C     0.39465   0.23016   2.13570
C    -0.86714  -0.12247   2.08130
C    -1.42995   0.24389  -0.44010
C    -1.88908   1.64958  -0.19119
C    -2.37766  -0.78626  -0.60164
N    -3.19714  -1.61465  -0.72020
N    -0.14739  -0.05334  -0.67899
H     3.62463   1.57288  -0.74184
H     4.29818   0.13273   0.08897
H     3.23821   1.29784   0.96698
H     0.83875   1.71437  -0.11414
H     0.72596   1.26249   2.29394
H     1.20740  -0.51076   2.02690
H    -1.68679   0.59857   2.22364
H    -1.18621  -1.15974   1.90778
H    -2.87850   1.66776   0.29747
H    -1.20051   2.25343   0.41034
H    -1.98657   2.10572  -1.18577
H     0.07104  -1.01985  -0.94569
23

C     3.41815   0.78989   0.00617
C     2.21302   0.00035  -0.44040
O     2.30823  -1.17919  -0.82826
C     0.93832   0.66791  -0.38916
C     0.39993   0.23399   2.11207
C    -0.87267  -0.11929   2.05645
C    -1.42713   0.24017  -0.41631
C    -1.88992   1.64853  -0.19015
C    -2.37842  -0.78624  -0.59622
N    -3.19668  -1.61366  -0.72165
N    -0.14784  -0.05193  -0.68529
H     3.62395   1.57252  -0.74231
H     4.29879   0.13310   0.08876
H     3.23876   1.29827   0.96690
H     0.84006   1.71420  -0.11529
H     0.72603   1.26176   2.29421
H     1.20657  -0.51129   2.02879
H    -1.68590   0.59827   2.22524
H    -1.18616  -1.15930   1.90826
H    -2.87869   1.66880   0.29784
H    -1.20102   2.25521   0.40873
H    -1.98680   2.10171  -1.18698
H     0.07064  -1.01982  -0.94519
23

C     3.41908   0.78972   0.00661
C     2.21401  -0.00105  -0.43538
O     2.30814  -1.17715  -0.82878
C     0.93534   0.66286  -0.36753
C     0.40522   0.23781   2.08843
C    -0.87819  -0.11611   2.03160
C    -1.42432   0.23645  -0.39252
C    -1.89076   1.64748  -0.18911
C    -2.37919  -0.78621  -0.59080
N    -3.19621  -1.61267  -0.72309
N    -0.14829  -0.05052  -0.69159
H     3.62327   1.57215  -0.74277
H     4.29940   0.13347   0.08855
H     3.23931   1.29870   0.96681
H     0.84136   1.71402  -0.11644
H     0.72610   1.26102   2.29447
H     1.20574  -0.51183   2.03068
H    -1.68501   0.59798   2.22685
H    -1.18611  -1.15887   1.90874
H    -2.87888   1.66983   0.29821
H    -1.20153   2.25700   0.40711
H    -1.98702   2.09770  -1.18819
H     0.07024  -1.01979  -0.94468
23

C     3.42001   0.78954   0.00705
C     2.21499  -0.00244  -0.43037
O     2.30804  -1.17511  -0.82929
C     0.93236   0.65781  -0.34591
C     0.41050   0.24164   2.06479
C    -0.88372  -0.11293   2.00676
C    -1.42151   0.23273  -0.36873
C    -1.89160   1.64643  -0.18807
C    -2.37995  -0.78618  -0.58538
N    -3.19574  -1.61168  -0.72454
N    -0.14874  -0.04911  -0.69789
H     3.62259   1.57179  -0.74324
H     4.30001   0.13384   0.08835
H     3.23986   1.29912   0.96672
H     0.84267   1.71385  -0.11759
H     0.72617   1.26029   2.29474
H     1.20490  -0.51236   2.03258
H    -1.68412   0.59768   2.22846
H    -1.18606  -1.15843   1.90922
H    -2.87907   1.67087   0.29858
H    -1.20204   2.25878   0.40549
H    -1.98725   2.09369  -1.18940
H     0.06985  -1.01976  -0.94418
23

C     3.42094   0.78937   0.00749
C     2.21598  -0.00384  -0.42535
O     2.30795  -1.17307  -0.82980
C     0.92937   0.65276  -0.32428
C     0.41579   0.24547   2.04116
C    -0.88924  -0.10975   1.98191
C    -1.41869   0.22901  -0.34494
C    -1.89244   1.64538  -0.18703
C    -2.38071  -0.78615  -0.57996
N    -3.19528  -1.61070  -0.72599
N    -0.14919  -0.04770  -0.70419
H     3.62191   1.57142  -0.74370
H     4.30063   0.13421   0.08814
H     3.24042   1.29955   0.96664
H     0.84398   1.71368  -0.11875
H     0.72624   1.25955   2.29500
H     1.20407  -0.51289   2.03447
H    -1.68323   0.59738   2.23007
H    -1.18601  -1.15800   1.90970
H    -2.87926   1.67191   0.29896
H    -1.20254   2.26057   0.40387
H    -1.98747   2.08969  -1.19061
H     0.06945  -1.01973  -0.94368
23

C     3.42187   0.78920   0.00794
C     2.21697  -0.00523  -0.42034
O     2.30785  -1.17103  -0.83031
C     0.92639   0.64770  -0.30266
C     0.42107   0.24930   2.01752
C    -0.89477  -0.10657   1.95706
C    -1.41588   0.22529  -0.32115
C    -1.89328   1.64433  -0.18599
C    -2.38148  -0.78613  -0.57454
N    -3.19481  -1.60971  -0.72743
N    -0.14964  -0.04629  -0.71050
H     3.62123   1.57106  -0.74417
H     4.30124   0.13458   0.08793
H     3.24097   1.29998   0.96655
H     0.84529   1.71350  -0.11990
H     0.72631   1.25882   2.29527
H     1.20324  -0.51342   2.03636
H    -1.68234   0.59709   2.23168
H    -1.18596  -1.15756   1.91018
H    -2.87945   1.67294   0.29933
H    -1.20305   2.26235   0.40225
H    -1.98769   2.08568  -1.19182
H     0.06905  -1.01970  -0.94317
23

C     3.42280   0.78903   0.00838
C     2.21795  -0.00663  -0.41532
O     2.30776  -1.16899  -0.83082
C     0.92341   0.64265  -0.28104
C     0.42635   0.25313   1.99388
C    -0.90029  -0.10338   1.93221
C    -1.41307   0.22157  -0.29736
C    -1.89412   1.64328  -0.18495
C    -2.38224  -0.78610  -0.56912
N    -3.19435  -1.60872  -0.72888
N    -0.15009  -0.04488  -0.71680
H     3.62055   1.57069  -0.74463
H     4.30185   0.13495   0.08772
H     3.24152   1.30041   0.96646
H     0.84660   1.71333  -0.12105
H     0.72639   1.25808   2.29553
H     1.20241  -0.51395   2.03825
H    -1.68145   0.59679   2.23329
H    -1.18591  -1.15713   1.91066
H    -2.87964   1.67398   0.29970
H    -1.20356   2.26414   0.40063
H    -1.98792   2.08167  -1.19304
H     0.06865  -1.01967  -0.94267
23

C     3.42373   0.78885   0.00882
C     2.21894  -0.00802  -0.41031
O     2.30766  -1.16695  -0.83134
C     0.92043   0.63760  -0.25941
C     0.43164   0.25696   1.97025
C    -0.90582  -0.10020   1.90737
C    -1.41026   0.21784  -0.27357
C    -1.89496   1.64223  -0.18391
C    -2.38301  -0.78607  -0.56370
N    -3.19388  -1.60773  -0.73032
N    -0.15053  -0.04347  -0.72310
H     3.61987   1.57032  -0.74510
H     4.30246   0.13532   0.08751
H     3.24208   1.30084   0.96638
H     0.84791   1.71316  -0.12220
H     0.72646   1.25735   2.29580
H     1.20158  -0.51449   2.04015
H    -1.68056   0.59649   2.23489
H    -1.18586  -1.15669   1.91114
H    -2.87983   1.67501   0.30007
H    -1.20407   2.26592   0.39902
H    -1.98814   2.07766  -1.19425
H     0.06826  -1.01964  -0.94217
23

C     3.42466   0.78868   0.00926
C     2.21993  -0.00941  -0.40529
O     2.30757  -1.16491  -0.83185
C     0.91744   0.63255  -0.23779
C     0.43692   0.26079   1.94661
C    -0.91134  -0.09702   1.88252
C    -1.40744   0.21412  -0.24978
C    -1.89580   1.64117  -0.18288
C    -2.38377  -0.78605  -0.55828
N    -3.19341  -1.60675  -0.73177
N    -0.15098  -0.04206  -0.72940
H     3.61918   1.56996  -0.74556
H     4.30307   0.13569   0.08730
H     3.24263   1.30126   0.96629
H     0.84922   1.71298  -0.12336
H     0.72653   1.25661   2.29607
H     1.20075  -0.51502   2.04204
H    -1.67968   0.59620   2.23650
H    -1.18581  -1.15626   1.91162
H    -2.88002   1.67605   0.30045
H    -1.20458   2.26771   0.39740
H    -1.98837   2.07365  -1.19546
H     0.06786  -1.01961  -0.94166
23

C     3.42559   0.78851   0.00970
C     2.22091  -0.01081  -0.40028
O     2.30747  -1.16287  -0.83236
C     0.91446   0.62749  -0.21616
C     0.44220   0.26462   1.92297
C    -0.91687  -0.09384   1.85767
C    -1.40463   0.21040  -0.22599
C    -1.89664   1.64012  -0.18184
C    -2.38454  -0.78602  -0.55286
N    -3.19295  -1.60576  -0.73322
N    -0.15143  -0.04065  -0.73570
H     3.61850   1.56959  -0.74603
H     4.30368   0.13606   0.08709
H     3.24318   1.30169   0.96620
H     0.85052   1.71281  -0.12451
H     0.72660   1.25588   2.29633
H     1.19992  -0.51555   2.04393
H    -1.67879   0.59590   2.23811
H    -1.18576  -1.15582   1.91210
H    -2.88021   1.67709   0.30082
H    -1.20509   2.26949   0.39578
H    -1.98859   2.06964  -1.19667
H     0.06746  -1.01958  -0.94116
23

C     3.42652   0.78834   0.01015
C     2.22190  -0.01220  -0.39526
O     2.30738  -1.16083  -0.83287
C     0.91148   0.62244  -0.19454
C     0.44749   0.26845   1.89934
C    -0.92239  -0.09066   1.83282
C    -1.40182   0.20668  -0.20220
C    -1.89748   1.63907  -0.18080
C    -2.38530  -0.78599  -0.54744
N    -3.19248  -1.60477  -0.73466
N    -0.15188  -0.03924  -0.74200
H     3.61782   1.56923  -0.74650
H     4.30429   0.13643   0.08688
H     3.24373   1.30212   0.96612
H     0.85183   1.71263  -0.12566
H     0.72667   1.25514   2.29660
H     1.19909  -0.51608   2.04582
H    -1.67790   0.59560   2.23972
H    -1.18571  -1.15539   1.91258
H    -2.88040   1.67812   0.30119
H    -1.20559   2.27128   0.39416
H    -1.98882   2.06563  -1.19788
H     0.06707  -1.01955  -0.94066
23

C     3.42746   0.78816   0.01059
C     2.22288  -0.01360  -0.39024
O     2.30728  -1.15879  -0.83338
C     0.90849   0.61739  -0.17291
C     0.45277   0.27228   1.87570
C    -0.92792  -0.08748   1.80798
C    -1.39900   0.20296  -0.17841
C    -1.89832   1.63802  -0.17976
C    -2.38606  -0.78596  -0.54202
N    -3.19201  -1.60378  -0.73611
N    -0.15233  -0.03783  -0.74830
H     3.61714   1.56886  -0.74696
H     4.30490   0.13680   0.08667
H     3.24429   1.30255   0.96603
H     0.85314   1.71246  -0.12681
H     0.72674   1.25441   2.29686
H     1.19825  -0.51661   2.04772
H    -1.67701   0.59530   2.24133
H    -1.18566  -1.15495   1.91307
H    -2.88059   1.67916   0.30156
H    -1.20610   2.27306   0.39254
H    -1.98904   2.06162  -1.19909
H     0.06667  -1.01952  -0.94015
23

C     3.42839   0.78799   0.01103
C     2.22387  -0.01499  -0.38523
O     2.30719  -1.15675  -0.83390
C     0.90551   0.61234  -0.15129
C     0.45806   0.27610   1.85207
C    -0.93344  -0.08430   1.78313
C    -1.39619   0.19924  -0.15462
C    -1.89916   1.63697  -0.17872
C    -2.38683  -0.78594  -0.53660
N    -3.19155  -1.60280  -0.73756
N    -0.15278  -0.03642  -0.75460
H     3.61646   1.56849  -0.74743
H     4.30551   0.13717   0.08646
H     3.24484   1.30297   0.96594
H     0.85445   1.71229  -0.12796
H     0.72681   1.25367   2.29713
H     1.19742  -0.51715   2.04961
H    -1.67612   0.59501   2.24294
H    -1.18560  -1.15451   1.91355
H    -2.88078   1.68019   0.30193
H    -1.20661   2.27485   0.39092
H    -1.98926   2.05762  -1.20030
H     0.06627  -1.01949  -0.93965
23

C     3.42932   0.78782   0.01147
C     2.22486  -0.01639  -0.38021
O     2.30709  -1.15471  -0.83441
C     0.90253   0.60728  -0.12966
C     0.46334   0.27993   1.82843
C    -0.93897  -0.08112   1.75828
C    -1.39338   0.19551  -0.13083
C    -1.90000   1.63592  -0.17768
C    -2.38759  -0.78591  -0.53118
N    -3.19108  -1.60181  -0.73900
N    -0.15323  -0.03501  -0.76090
H     3.61578   1.56813  -0.74789
H     4.30612   0.13754   0.08626
H     3.24539   1.30340   0.96586
H     0.85576   1.71211  -0.12912
H     0.72689   1.25294   2.29739
H     1.19659  -0.51768   2.05150
H    -1.67523   0.59471   2.24454
H    -1.18555  -1.15408   1.91403
H    -2.88097   1.68123   0.30231
H    -1.20712   2.27663   0.38930
H    -1.98949   2.05361  -1.20151
H     0.06587  -1.01947  -0.93915
23

C     3.43025   0.78765   0.01191
C     2.22584  -0.01778  -0.37520
O     2.30700  -1.15267  -0.83492
C     0.89955   0.60223  -0.10804
C     0.46862   0.28376   1.80479
C    -0.94449  -0.07794   1.73343
C    -1.39057   0.19179  -0.10704
C    -1.90084   1.63487  -0.17664
C    -2.38836  -0.78588  -0.52576
N    -3.19061  -1.60082  -0.74045
N    -0.15368  -0.03360  -0.76721
H     3.61510   1.56776  -0.74836
H     4.30673   0.13791   0.08605
H     3.24594   1.30383   0.96577
H     0.85707   1.71194  -0.13027
H     0.72696   1.25220   2.29766
H     1.19576  -0.51821   2.05339
H    -1.67434   0.59441   2.24615
H    -1.18550  -1.15364   1.91451
H    -2.88116   1.68227   0.30268
H    -1.20763   2.27842   0.38769
H    -1.98971   2.04960  -1.20272
H     0.06548  -1.01944  -0.93865
23

C     3.43118   0.78747   0.01236
C     2.22683  -0.01917  -0.37018
O     2.30690  -1.15063  -0.83543
C     0.89656   0.59718  -0.08641
C     0.47391   0.28759   1.78116
C    -0.95002  -0.07476   1.70859
C    -1.38775   0.18807  -0.08325
C    -1.90168   1.63382  -0.17560
C    -2.38912  -0.78585  -0.52034
N    -3.19015  -1.59983  -0.74189
N    -0.15413  -0.03219  -0.77351
H     3.61442   1.56740  -0.74882
H     4.30735   0.13828   0.08584
H     3.24650   1.30426   0.96568
H     0.85838   1.71177  -0.13142
H     0.72703   1.25147   2.29793
H     1.19493  -0.51874   2.05529
H    -1.67345   0.59412   2.24776
H    -1.18545  -1.15321   1.91499
H    -2.88135   1.68330   0.30305
H    -1.20813   2.28020   0.38607
H    -1.98994   2.04559  -1.20393
H     0.06508  -1.01941  -0.93814
23

C     3.43211   0.78730   0.01280
C     2.22782  -0.02057  -0.36517
O     2.30681  -1.14859  -0.83594
C     0.89358   0.59212  -0.06479
C     0.47919   0.29142   1.75752
C    -0.95554  -0.07158   1.68374
C    -1.38494   0.18435  -0.05946
C    -1.90252   1.63277  -0.17456
C    -2.38988  -0.78583  -0.51492
N    -3.18968  -1.59885  -0.74334
N    -0.15457  -0.03078  -0.77981
H     3.61374   1.56703  -0.74929
H     4.30796   0.13865   0.08563
H     3.24705   1.30469   0.96560
H     0.85968   1.71159  -0.13257
H     0.72710   1.25073   2.29819
H     1.19410  -0.51927   2.05718
H    -1.67257   0.59382   2.24937
H    -1.18540  -1.15277   1.91547
H    -2.88154   1.68434   0.30342
H    -1.20864   2.28199   0.38445
H    -1.99016   2.04158  -1.20515
H     0.06468  -1.01938  -0.93764
23

C     3.43304   0.78713   0.01324
C     2.22880  -0.02196  -0.36015
O     2.30671  -1.14655  -0.83646
C     0.89060   0.58707  -0.04316
C     0.48447   0.29525   1.73388
C    -0.96107  -0.06840   1.65889
C    -1.38213   0.18063  -0.03567
C    -1.90336   1.63172  -0.17352
C    -2.39065  -0.78580  -0.50950
N    -3.18921  -1.59786  -0.74479
N    -0.15502  -0.02937  -0.78611
H     3.61306   1.56666  -0.74975
H     4.30857   0.13902   0.08542
H     3.24760   1.30511   0.96551
H     0.86099   1.71142  -0.13373
H     0.72717   1.25000   2.29846
H     1.19327  -0.51981   2.05907
H    -1.67168   0.59352   2.25098
H    -1.18535  -1.15234   1.91595
H    -2.88173   1.68537   0.30380
H    -1.20915   2.28377   0.38283
H    -1.99038   2.03757  -1.20636
H     0.06428  -1.01935  -0.93714
23

C     3.43211   0.78730   0.01280
C     2.22782  -0.02057  -0.36517
O     2.30681  -1.14859  -0.83594
C     0.89358   0.59212  -0.06479
C     0.47919   0.29142   1.75752
C    -0.95554  -0.07158   1.68374
C    -1.38494   0.18435  -0.05946
C    -1.90252   1.63277  -0.17456
C    -2.38988  -0.78583  -0.51492
N    -3.18968  -1.59885  -0.74334
N    -0.15457  -0.03078  -0.77981
H     3.61374   1.56703  -0.74929
H     4.30796   0.13865   0.08563
H     3.24705   1.30469   0.96560
H     0.85968   1.71159  -0.13257
H     0.72710   1.25073   2.29819
H     1.19410  -0.51927   2.05718
H    -1.67257   0.59382   2.24937
H    -1.18540  -1.15277   1.91547
H    -2.88154   1.68434   0.30342
H    -1.20864   2.28199   0.38445
H    -1.99016   2.04158  -1.20515
H     0.06468  -1.01938  -0.93764
23

C     3.43118   0.78747   0.01236
C     2.22683  -0.01917  -0.37018
O     2.30690  -1.15063  -0.83543
C     0.89656   0.59718  -0.08641
C     0.47391   0.28759   1.78116
C    -0.95002  -0.07476   1.70859
C    -1.38775   0.18807  -0.08325
C    -1.90168   1.63382  -0.17560
C    -2.38912  -0.78585  -0.52034
N    -3.19015  -1.59983  -0.74189
N    -0.15413  -0.03219  -0.77351
H     3.61442   1.56740  -0.74882
H     4.30735   0.13828   0.08584
H     3.24650   1.30426   0.96568
H     0.85838   1.71177  -0.13142
H     0.72703   1.25147   2.29793
H     1.19493  -0.51874   2.05529
H    -1.67345   0.59412   2.24776
H    -1.18545  -1.15321   1.91499
H    -2.88135   1.68330   0.30305
H    -1.20813   2.28020   0.38607
H    -1.98994   2.04559  -1.20393
H     0.06508  -1.01941  -0.93814
23

C     3.43025   0.78765   0.01191
C     2.22584  -0.01778  -0.37520
O     2.30700  -1.15267  -0.83492
C     0.89955   0.60223  -0.10804
C     0.46862   0.28376   1.80479
C    -0.94449  -0.07794   1.73343
C    -1.39057   0.19179  -0.10704
C    -1.90084   1.63487  -0.17664
C    -2.38836  -0.78588  -0.52576
N    -3.19061  -1.60082  -0.74045
N    -0.15368  -0.03360  -0.76721
H     3.61510   1.56776  -0.74836
H     4.30673   0.13791   0.08605
H     3.24594   1.30383   0.96577
H     0.85707   1.71194  -0.13027
H     0.72696   1.25220   2.29766
H     1.19576  -0.51821   2.05339
H    -1.67434   0.59441   2.24615
H    -1.18550  -1.15364   1.91451
H    -2.88116   1.68227   0.30268
H    -1.20763   2.27842   0.38769
H    -1.98971   2.04960  -1.20272
H     0.06548  -1.01944  -0.93865
23

C     3.42932   0.78782   0.01147
C     2.22486  -0.01639  -0.38021
O     2.30709  -1.15471  -0.83441
C     0.90253   0.60728  -0.12966
C     0.46334   0.27993   1.82843
C    -0.93897  -0.08112   1.75828
C    -1.39338   0.19551  -0.13083
C    -1.90000   1.63592  -0.17768
C    -2.38759  -0.78591  -0.53118
N    -3.19108  -1.60181  -0.73900
N    -0.15323  -0.03501  -0.76090
H     3.61578   1.56813  -0.74789
H     4.30612   0.13754   0.08626
H     3.24539   1.30340   0.96586
H     0.85576   1.71211  -0.12912
H     0.72689   1.25294   2.29739
H     1.19659  -0.51768   2.05150
H    -1.67523   0.59471   2.24454
H    -1.18555  -1.15408   1.91403
H    -2.88097   1.68123   0.30231
H    -1.20712   2.27663   0.38930
H    -1.98949   2.05361  -1.20151
H     0.06587  -1.01947  -0.93915
23

C     3.42839   0.78799   0.01103
C     2.22387  -0.01499  -0.38523
O     2.30719  -1.15675  -0.83390
C     0.90551   0.61234  -0.15129
C     0.45806   0.27610   1.85207
C    -0.93344  -0.08430   1.78313
C    -1.39619   0.19924  -0.15462
C    -1.89916   1.63697  -0.17872
C    -2.38683  -0.78594  -0.53660
N    -3.19155  -1.60280  -0.73756
N    -0.15278  -0.03642  -0.75460
H     3.61646   1.56849  -0.74743
H     4.30551   0.13717   0.08646
H     3.24484   1.30297   0.96594
H     0.85445   1.71229  -0.12796
H     0.72681   1.25367   2.29713
H     1.19742  -0.51715   2.04961
H    -1.67612   0.59501   2.24294
H    -1.18560  -1.15451   1.91355
H    -2.88078   1.68019   0.30193
H    -1.20661   2.27485   0.39092
H    -1.98926   2.05762  -1.20030
H     0.06627  -1.01949  -0.93965
23

C     3.42746   0.78816   0.01059
C     2.22288  -0.01360  -0.39024
O     2.30728  -1.15879  -0.83338
C     0.90849   0.61739  -0.17291
C     0.45277   0.27228   1.87570
C    -0.92792  -0.08748   1.80798
C    -1.39900   0.20296  -0.17841
C    -1.89832   1.63802  -0.17976
C    -2.38606  -0.78596  -0.54202
N    -3.19201  -1.60378  -0.73611
N    -0.15233  -0.03783  -0.74830
H     3.61714   1.56886  -0.74696
H     4.30490   0.13680   0.08667
H     3.24429   1.30255   0.96603
H     0.85314   1.71246  -0.12681
H     0.72674   1.25441   2.29686
H     1.19825  -0.51661   2.04772
H    -1.67701   0.59530   2.24133
H    -1.18566  -1.15495   1.91307
H    -2.88059   1.67916   0.30156
H    -1.20610   2.27306   0.39254
H    -1.98904   2.06162  -1.19909
H     0.06667  -1.01952  -0.94015
23

C     3.42652   0.78834   0.01015
C     2.22190  -0.01220  -0.39526
O     2.30738  -1.16083  -0.83287
C     0.91148   0.62244  -0.19454
C     0.44749   0.26845   1.89934
C    -0.92239  -0.09066   1.83282
C    -1.40182   0.20668  -0.20220
C    -1.89748   1.63907  -0.18080
C    -2.38530  -0.78599  -0.54744
N    -3.19248  -1.60477  -0.73466
N    -0.15188  -0.03924  -0.74200
H     3.61782   1.56923  -0.74650
H     4.30429   0.13643   0.08688
H     3.24373   1.30212   0.96612
H     0.85183   1.71263  -0.12566
H     0.72667   1.25514   2.29660
H     1.19909  -0.51608   2.04582
H    -1.67790   0.59560   2.23972
H    -1.18571  -1.15539   1.91258
H    -2.88040   1.67812   0.30119
H    -1.20559   2.27128   0.39416
H    -1.98882   2.06563  -1.19788
H     0.06707  -1.01955  -0.94066
23

C     3.42559   0.78851   0.00970
C     2.22091  -0.01081  -0.40028
O     2.30747  -1.16287  -0.83236
C     0.91446   0.62749  -0.21616
C     0.44220   0.26462   1.92297
C    -0.91687  -0.09384   1.85767
C    -1.40463   0.21040  -0.22599
C    -1.89664   1.64012  -0.18184
C    -2.38454  -0.78602  -0.55286
N    -3.19295  -1.60576  -0.73322
N    -0.15143  -0.04065  -0.73570
H     3.61850   1.56959  -0.74603
H     4.30368   0.13606   0.08709
H     3.24318   1.30169   0.96620
H     0.85052   1.71281  -0.12451
H     0.72660   1.25588   2.29633
H     1.19992  -0.51555   2.04393
H    -1.67879   0.59590   2.23811
H    -1.18576  -1.15582   1.91210
H    -2.88021   1.67709   0.30082
H    -1.20509   2.26949   0.39578
H    -1.98859   2.06964  -1.19667
H     0.06746  -1.01958  -0.94116
23

C     3.42466   0.78868   0.00926
C     2.21993  -0.00941  -0.40529
O     2.30757  -1.16491  -0.83185
C     0.91744   0.63255  -0.23779
C     0.43692   0.26079   1.94661
C    -0.91134  -0.09702   1.88252
C    -1.40744   0.21412  -0.24978
C    -1.89580   1.64117  -0.18288
C    -2.38377  -0.78605  -0.55828
N    -3.19341  -1.60675  -0.73177
N    -0.15098  -0.04206  -0.72940
H     3.61918   1.56996  -0.74556
H     4.30307   0.13569   0.08730
H     3.24263   1.30126   0.96629
H     0.84922   1.71298  -0.12336
H     0.72653   1.25661   2.29607
H     1.20075  -0.51502   2.04204
H    -1.67968   0.59620   2.23650
H    -1.18581  -1.15626   1.91162
H    -2.88002   1.67605   0.30045
H    -1.20458   2.26771   0.39740
H    -1.98837   2.07365  -1.19546
H     0.06786  -1.01961  -0.94166
23

C     3.42373   0.78885   0.00882
C     2.21894  -0.00802  -0.41031
O     2.30766  -1.16695  -0.83134
C     0.92043   0.63760  -0.25941
C     0.43164   0.25696   1.97025
C    -0.90582  -0.10020   1.90737
C    -1.41026   0.21784  -0.27357
C    -1.89496   1.64223  -0.18391
C    -2.38301  -0.78607  -0.56370
N    -3.19388  -1.60773  -0.73032
N    -0.15053  -0.04347  -0.72310
H     3.61987   1.57032  -0.74510
H     4.30246   0.13532   0.08751
H     3.24208   1.30084   0.96638
H     0.84791   1.71316  -0.12220
H     0.72646   1.25735   2.29580
H     1.20158  -0.51449   2.04015
H    -1.68056   0.59649   2.23489
H    -1.18586  -1.15669   1.91114
H    -2.87983   1.67501   0.30007
H    -1.20407   2.26592   0.39902
H    -1.98814   2.07766  -1.19425
H     0.06826  -1.01964  -0.94217
23

C     3.42280   0.78903   0.00838
C     2.21795  -0.00663  -0.41532
O     2.30776  -1.16899  -0.83082
C     0.92341   0.64265  -0.28104
C     0.42635   0.25313   1.99388
C    -0.90029  -0.10338   1.93221
C    -1.41307   0.22157  -0.29736
C    -1.89412   1.64328  -0.18495
C    -2.38224  -0.78610  -0.56912
N    -3.19435  -1.60872  -0.72888
N    -0.15009  -0.04488  -0.71680
H     3.62055   1.57069  -0.74463
H     4.30185   0.13495   0.08772
H     3.24152   1.30041   0.96646
H     0.84660   1.71333  -0.12105
H     0.72639   1.25808   2.29553
H     1.20241  -0.51395   2.03825
H    -1.68145   0.59679   2.23329
H    -1.18591  -1.15713   1.91066
H    -2.87964   1.67398   0.29970
H    -1.20356   2.26414   0.40063
H    -1.98792   2.08167  -1.19304
H     0.06865  -1.01967  -0.94267
23

C     3.42187   0.78920   0.00794
C     2.21697  -0.00523  -0.42034
O     2.30785  -1.17103  -0.83031
C     0.92639   0.64770  -0.30266
C     0.42107   0.24930   2.01752
C    -0.89477  -0.10657   1.95706
C    -1.41588   0.22529  -0.32115
C    -1.89328   1.64433  -0.18599
C    -2.38148  -0.78613  -0.57454
N    -3.19481  -1.60971  -0.72743
N    -0.14964  -0.04629  -0.71050
H     3.62123   1.57106  -0.74417
H     4.30124   0.13458   0.08793
H     3.24097   1.29998   0.96655
H     0.84529   1.71350  -0.11990
H     0.72631   1.25882   2.29527
H     1.20324  -0.51342   2.03636
H    -1.68234   0.59709   2.23168
H    -1.18596  -1.15756   1.91018
H    -2.87945   1.67294   0.29933
H    -1.20305   2.26235   0.40225
H    -1.98769   2.08568  -1.19182
H     0.06905  -1.01970  -0.94317
23

C     3.42094   0.78937   0.00749
C     2.21598  -0.00384  -0.42535
O     2.30795  -1.17307  -0.82980
C     0.92937   0.65276  -0.32428
C     0.41579   0.24547   2.04116
C    -0.88924  -0.10975   1.98191
C    -1.41869   0.22901  -0.34494
C    -1.89244   1.64538  -0.18703
C    -2.38071  -0.78615  -0.57996
N    -3.19528  -1.61070  -0.72599
N    -0.14919  -0.04770  -0.70419
H     3.62191   1.57142  -0.74370
H     4.30063   0.13421   0.08814
H     3.24042   1.29955   0.96664
H     0.84398   1.71368  -0.11875
H     0.72624   1.25955   2.29500
H     1.20407  -0.51289   2.03447
H    -1.68323   0.59738   2.23007
H    -1.18601  -1.15800   1.90970
H    -2.87926   1.67191   0.29896
H    -1.20254   2.26057   0.40387
H    -1.98747   2.08969  -1.19061
H     0.06945  -1.01973  -0.94368
23

C     3.42001   0.78954   0.00705
C     2.21499  -0.00244  -0.43037
O     2.30804  -1.17511  -0.82929
C     0.93236   0.65781  -0.34591
C     0.41050   0.24164   2.06479
C    -0.88372  -0.11293   2.00676
C    -1.42151   0.23273  -0.36873
C    -1.89160   1.64643  -0.18807
C    -2.37995  -0.78618  -0.58538
N    -3.19574  -1.61168  -0.72454
N    -0.14874  -0.04911  -0.69789
H     3.62259   1.57179  -0.74324
H     4.30001   0.13384   0.08835
H     3.23986   1.29912   0.96672
H     0.84267   1.71385  -0.11759
H     0.72617   1.26029   2.29474
H     1.20490  -0.51236   2.03258
H    -1.68412   0.59768   2.22846
H    -1.18606  -1.15843   1.90922
H    -2.87907   1.67087   0.29858
H    -1.20204   2.25878   0.40549
H    -1.98725   2.09369  -1.18940
H     0.06985  -1.01976  -0.94418
23

C     3.41908   0.78972   0.00661
C     2.21401  -0.00105  -0.43538
O     2.30814  -1.17715  -0.82878
C     0.93534   0.66286  -0.36753
C     0.40522   0.23781   2.08843
C    -0.87819  -0.11611   2.03160
C    -1.42432   0.23645  -0.39252
C    -1.89076   1.64748  -0.18911
C    -2.37919  -0.78621  -0.59080
N    -3.19621  -1.61267  -0.72309
N    -0.14829  -0.05052  -0.69159
H     3.62327   1.57215  -0.74277
H     4.29940   0.13347   0.08855
H     3.23931   1.29870   0.96681
H     0.84136   1.71402  -0.11644
H     0.72610   1.26102   2.29447
H     1.20574  -0.51183   2.03068
H    -1.68501   0.59798   2.22685
H    -1.18611  -1.15887   1.90874
H    -2.87888   1.66983   0.29821
H    -1.20153   2.25700   0.40711
H    -1.98702   2.09770  -1.18819
H     0.07024  -1.01979  -0.94468
23

C     3.41815   0.78989   0.00617
C     2.21302   0.00035  -0.44040
O     2.30823  -1.17919  -0.82826
C     0.93832   0.66791  -0.38916
C     0.39993   0.23399   2.11207
C    -0.87267  -0.11929   2.05645
C    -1.42713   0.24017  -0.41631
C    -1.88992   1.64853  -0.19015
C    -2.37842  -0.78624  -0.59622
N    -3.19668  -1.61366  -0.72165
N    -0.14784  -0.05193  -0.68529
H     3.62395   1.57252  -0.74231
H     4.29879   0.13310   0.08876
H     3.23876   1.29827   0.96690
H     0.84006   1.71420  -0.11529
H     0.72603   1.26176   2.29421
H     1.20657  -0.51129   2.02879
H    -1.68590   0.59827   2.22524
H    -1.18616  -1.15930   1.90826
H    -2.87869   1.66880   0.29784
H    -1.20102   2.25521   0.40873
H    -1.98680   2.10171  -1.18698
H     0.07064  -1.01982  -0.94519
23

C     3.41722   0.79006   0.00573
C     2.21203   0.00174  -0.44541
O     2.30833  -1.18123  -0.82775
C     0.94130   0.67297  -0.41078
C     0.39465   0.23016   2.13570
C    -0.86714  -0.12247   2.08130
C    -1.42995   0.24389  -0.44010
C    -1.88908   1.64958  -0.19119
C    -2.37766  -0.78626  -0.60164
N    -3.19714  -1.61465  -0.72020
N    -0.14739  -0.05334  -0.67899
H     3.62463   1.57288  -0.74184
H     4.29818   0.13273   0.08897
H     3.23821   1.29784   0.96698
H     0.83875   1.71437  -0.11414
H     0.72596   1.26249   2.29394
H     1.20740  -0.51076   2.02690
H    -1.68679   0.59857   2.22364
H    -1.18621  -1.15974   1.90778
H    -2.87850   1.66776   0.29747
H    -1.20051   2.25343   0.41034
H    -1.98657   2.10572  -1.18577
H     0.07104  -1.01985  -0.94569
23

C     3.41629   0.79023   0.00529
C     2.21105   0.00314  -0.45043
O     2.30842  -1.18327  -0.82724
C     0.94429   0.67802  -0.43241
C     0.38937   0.22633   2.15934
C    -0.86162  -0.12565   2.10615
C    -1.43276   0.24762  -0.46389
C    -1.88824   1.65063  -0.19223
C    -2.37689  -0.78629  -0.60706
N    -3.19761  -1.61563  -0.71876
N    -0.14694  -0.05475  -0.67269
H     3.62531   1.57325  -0.74138
H     4.29757   0.13236   0.08918
H     3.23765   1.29741   0.96707
H     0.83744   1.71454  -0.11299
H     0.72588   1.26323   2.29367
H     1.20823  -0.51023   2.02501
H    -1.68768   0.59887   2.22203
H    -1.18626  -1.16017   1.90730
H    -2.87831   1.66673   0.29710
H    -1.20000   2.25164   0.41196
H    -1.98635   2.10973  -1.18456
H     0.07144  -1.01988  -0.94619
23

C     3.41536   0.79041   0.00484
C     2.21006   0.00453  -0.45544
O     2.30852  -1.18531  -0.82673
C     0.94727   0.68307  -0.45403
C     0.38408   0.22250   2.18297
C    -0.85609  -0.12883   2.13099
C    -1.43557   0.25134  -0.48768
C    -1.88740   1.65168  -0.19327
C    -2.37613  -0.78632  -0.61248
N    -3.19808  -1.61662  -0.71731
N    -0.14650  -0.05616  -0.66639
H     3.62599   1.57362  -0.74091
H     4.29696   0.13199   0.08939
H     3.23710   1.29699   0.96716
H     0.83613   1.71472  -0.11183
H     0.72581   1.26396   2.29341
H     1.20906  -0.50970   2.02311
H    -1.68856   0.59917   2.22042
H    -1.18631  -1.16061   1.90682
H    -2.87812   1.66569   0.29672
H    -1.19950   2.24986   0.41358
H    -1.98613   2.11374  -1.18335
H     0.07183  -1.01991  -0.94670
