9

N -3.315540057 0.220803556 0.332542438
C -0.958188107 0.622299417 -0.334357445
N 0.305882163 -1.554538618 0.032888397
N 2.707855989 -0.762152605 0.337410600
N 2.930972343 1.602259796 -0.376065420
N 0.721660650 2.543239660 -0.810487680
H -1.835541800 -2.106850289 0.890065956
H -4.725304866 1.270208479 -0.401301257
H 4.214662620 -1.921091326 0.327703813

