11

C 0.397778468 -1.995059421 -0.688633377
H -0.427634855 -2.320180035 -2.563374503
H -0.554803975 -3.265027356 0.645010146
C 3.208044385 -2.333465812 -0.680905494
H 4.133358136 -4.092551560 -1.155628639
C 4.312690745 -0.192779220 -0.026620459
H 6.320997940 0.146201912 0.141569948
C 2.348130634 1.785015021 0.463501007
H 2.424466329 2.510086097 2.404515262
H 2.529214396 3.405314255 -0.818336469
O 0.003036676 0.552841438 0.048456149

