17

C -4.483483701 1.353648977 0.654971799
C -2.230797728 -0.312329304 1.085034518
C 0.584520277 -2.786551366 -0.517127579
C 3.300074425 -2.174240871 -0.075239786
C 3.941910530 0.227737472 0.147265544
C 1.778579615 2.008443671 -0.313581153
O -0.251575100 0.395255683 -0.973529244
H -5.787602351 1.122356874 2.241121472
H -5.508909888 0.847709011 -1.063738042
H -4.002401911 3.379041695 0.526208337
H -1.273135211 0.188115489 2.857561132
H 0.058483225 -3.413913549 -2.398063473
H -0.138734357 -4.075028791 0.896550230
H 4.602583350 -3.728592255 0.214517930
H 5.823619227 0.900861300 0.579683259
H 1.293348780 3.148066122 1.346234655
H 2.163176997 3.265511844 -1.909360209

