14

C 3.208824993 0.055301833 -0.456412209
C 1.366877248 0.875792382 1.715642778
C -0.045286644 3.076697553 1.352301791
C -3.365325402 -1.018842495 -1.529747773
O -0.810459391 -0.949056799 -2.292036325
C 0.870895913 -1.303886138 -0.403929450
H 3.419497368 1.458953322 -1.924331073
H 4.917037122 -0.835950398 0.223247482
H 1.854430444 0.043422788 3.535995582
H -3.788241365 0.661979149 -0.394940911
H -0.532795374 3.843173644 3.233056271
H -4.503574551 -1.007025754 -3.241259364
H -3.778080629 -2.726613108 -0.433322251
H 0.758479658 -3.114135730 0.567473719

