14

C 3.228614828 0.129843800 -0.535286411
C 1.187378494 0.605563493 1.456928538
C -0.739144056 2.531461167 0.991136899
C -3.031413952 -0.622988090 -1.183096753
O -0.799302013 -1.552603349 -2.153254518
C 1.096160885 -1.646733650 -0.353964015
H 3.187042365 1.441265694 -2.102679116
H 5.074756763 -0.494180446 0.088371341
H 1.634745738 0.074355394 3.388737238
H -2.508203193 1.571973533 -0.649333688
H -1.870862444 2.753309175 2.725776999
H -4.418118660 -0.418754314 -2.690963671
H -3.767005020 -1.665200904 0.438575595
H 1.355349447 -3.490960121 0.502833237

