10

C -3.419306959 2.627828941 -1.254333740
C -1.250797590 0.837031548 -0.902520612
H 0.570496204 1.502768928 -1.591276198
O -1.099705010 -0.425189134 1.458509388
C -1.609435672 -1.891076428 -0.727090702
H -0.106426201 -3.167545702 -1.298044825
H -3.510535170 -2.661484907 -0.840210030
H -5.157902842 1.812876368 -0.504919778
H -3.694012893 3.045437363 -3.256644399
H -3.060843979 4.405180197 -0.270817823

