15

C -3.705049744 2.165685741 -0.985191405
C -1.004893595 1.299906243 -0.726433191
O -0.395002970 0.657827516 1.801131115
C -0.391099231 -1.314182462 -1.322058538
O 2.701212241 -3.468666379 0.660983661
C 4.320903740 -2.178919474 1.786922000
O 4.131411831 0.113905264 2.382919245
H -4.989988827 0.776585540 -0.168534185
H -4.197838463 2.464112764 -2.965607282
H -3.936574208 3.945771713 0.027282146
H 0.328502109 2.660175195 -1.525116168
H 1.622777403 0.636334054 2.089775934
H 1.137288280 -1.846029288 -2.556152537
H -1.741028073 -2.760410218 -0.817962000
H 6.096999480 -3.138671575 2.313647630

