14

O 4.190607086 -0.558870136 0.075208624
C 3.313072623 1.001466029 -1.442877158
C 0.005580720 0.309225221 -0.325453282
C -2.154062640 -0.972299864 -1.595921692
N -2.896130915 -0.698997807 1.078150832
C -1.819921172 1.873202926 1.137380669
C 1.363081412 -1.464551220 1.355838716
H 4.778325876 1.941977090 -2.591674097
H -3.212690314 0.189237892 -2.944644984
H -1.914291789 -2.907214499 -2.259823071
H -2.845243822 3.302924283 0.044738302
H -1.268959615 2.565511840 2.997225404
H 1.573060749 -0.986668793 3.335403630
H 1.282679499 -3.469210072 0.947586970

