16

C -4.911906194 0.356110517 2.373162608
O -2.402302846 -0.448481067 2.656243468
C -0.915949024 -0.271238589 0.435893752
C -0.261660342 2.462756754 -0.208263806
H 0.762652495 3.334119202 1.356694478
H -1.954472242 3.579239300 -0.581656530
H 0.926485117 2.527205107 -1.891512842
C 1.424085816 -1.796432576 0.909326328
C 2.297369510 -3.560529462 -0.629398022
H 4.027656570 -4.576213015 -0.224989866
H 1.311311515 -4.059157586 -2.357210391
H 2.424893766 -1.335940429 2.643439723
H -1.960210547 -1.117114943 -1.151325733
H -5.064783167 2.404247677 2.098595947
H -5.908028058 -0.145066640 4.103581646
H -5.833348312 -0.593249773 0.774185399

