15

C -4.777560707 -0.029904217 -0.284223237
N -2.541754052 -0.943462511 -1.588082693
C -0.228325705 -0.753306457 -0.694686340
N 0.483989134 0.275493723 1.461486689
C 2.445719909 0.830369942 -0.730937807
O 2.398752183 2.891154491 -1.780658389
C 4.805029199 -0.727543972 -0.418034574
H -6.453193126 -0.832347975 -1.164802503
H -4.902931261 2.030318158 -0.364243482
H -4.742649396 -0.627528762 1.689196798
H -2.739448166 -1.623815070 -3.348318169
H -0.591229334 1.618880240 2.329389559
H 4.442664955 -2.513372747 0.531776282
H 5.606529701 -1.077493339 -2.282672052
H 6.164766930 0.375700533 0.671266586

