11

C -2.152301302 0.798740651 -0.176713751
C -0.513175122 -1.145416351 -1.407342748
O 1.688592217 -0.252961800 -2.657920411
C 3.329669048 0.840560593 -1.059614073
N 2.306471093 0.633451542 1.234611708
C -0.138805959 -0.553466181 1.315251991
H -1.838331697 2.766879771 -0.635138500
H -4.093596295 0.259510892 0.171265463
H -1.249693328 -2.886809538 -2.175458667
H 3.174246595 1.352827947 2.758565335
H -0.556850775 -1.812293274 2.868544995

