15

C -3.565203435 -0.256738872 0.005069304
C -1.027420264 0.937636806 0.505825883
O -0.620687821 1.894489028 2.774890830
C 1.147588308 -0.332461747 -0.857921469
C 3.702347795 -0.263248279 0.235047915
N 2.123262221 -2.506781268 0.527461452
H -5.074984229 0.915391612 0.760723972
H -3.881284563 -0.648747419 -1.994360695
H -3.534728634 -2.039682790 1.047080484
H -1.198625011 3.168865335 -1.125926472
H -0.871605108 3.413360388 0.678819160
H 0.938723437 -0.490394984 -2.894336469
H 3.973704454 0.792977478 1.965248009
H 5.294449538 -0.340812655 -1.051799508
H 2.642067385 -3.885638020 -0.692057580

