13

O -1.876856315 2.553488968 0.762606574
C -1.767800560 -0.062746183 0.671152768
C -2.659147467 -1.281730271 -1.717625800
C 0.079974570 -1.323000075 -1.064848671
O 1.645027605 0.214989927 -2.623682731
C 3.662858585 1.331782597 -1.758241626
O 3.917915109 0.829588521 0.702670074
H -0.373930313 3.156806634 1.583526922
H -2.143440905 -1.021945898 2.448627838
H -3.728648852 -3.020556133 -1.633496175
H -3.180806742 0.019115147 -3.207414199
H 0.991963352 -3.053467792 -0.470430538
H 5.442108127 1.664324525 1.228123560

