14

N 1.220578620 2.234774676 1.159133986
C 0.930237848 -0.130381030 2.626145762
O 0.766770359 -0.014435297 4.870886684
C 0.439232256 -2.285111991 0.882751884
C -1.718372733 -1.172411316 -0.836653395
C -0.758063503 1.289109500 -1.712024311
O -2.153582725 -2.054526173 -3.141196192
H 0.857414172 3.736866836 2.297861633
H 2.989028528 2.403149160 0.441210553
H -0.069363682 -3.973205377 1.935575642
H 2.055056014 -2.670792205 -0.346858191
H -3.405430965 -0.960221207 0.398471392
H 0.801499273 1.135364388 -3.025102058
H -2.072844876 2.822984492 -2.058768117

