19

C 5.370934540 0.802983294 0.973252267
C 2.817336063 -0.380615616 0.377638163
C 1.048513898 1.432098859 -0.997727111
C -1.516949395 0.282546275 -1.591640556
C -3.222769641 -0.062478787 0.685843934
C -5.474917079 -1.775444106 0.323237880
O -2.823764590 0.978228426 2.673266216
H 6.610068192 -0.524615638 1.950774483
H 5.149265508 2.460732592 2.183604615
H 6.332999005 1.412130331 -0.750195420
H 1.920719655 -1.005443921 2.131292782
H 3.090512623 -2.074712738 -0.782062571
H 1.934374476 2.048797449 -2.761856520
H -1.325157292 -1.538883956 -2.557634876
H -2.577562019 1.486768277 -2.903903434
H -6.353370706 -1.485370711 -1.520608358
H -6.845122948 -1.473496957 1.825550780
H -4.827270652 -3.736739469 0.388898323
H 0.770778657 3.123528311 0.155070812

