12

N -3.282918905 -1.176407028 0.144212182
C -1.264607425 0.225298081 1.025916194
O 0.950322481 -1.126892349 1.296274019
C -1.269131958 2.594097273 1.852805279
O 4.402741902 1.121226628 -1.477566180
C 3.491839523 -0.782624462 -2.219391946
O 1.655887370 -2.176313258 -1.102686563
H -4.546005819 -0.217643121 -0.899780905
H -2.829288675 -2.869761072 -0.587179386
H -3.017197202 3.633505469 2.040016062
H 0.493770489 3.470439868 2.380217938
H 3.976008805 -1.790928276 -3.974604814

