16

C 4.488630918 0.020518004 -0.249651038
C 2.089550962 -0.957986435 -1.523417077
C -0.216398794 -0.633034819 0.080804821
O -0.053990893 -2.045793144 2.232292558
C -4.501453390 1.218023106 1.065913041
C -2.169034487 0.845597431 -0.498376054
H 6.131746631 -0.280373147 -1.458633789
H 4.818892835 -0.949451336 1.537823556
H 4.337427902 2.041613089 0.137669080
H 2.305362863 -2.971401711 -1.944840913
H 1.783576089 0.010653520 -3.317348071
H -1.506040176 -1.734583351 3.273817210
H -4.810433400 -0.296323154 2.439653132
H -4.454143530 2.997633132 2.116971096
H -6.184543311 1.262342739 -0.125760877
H -2.046804658 1.886722235 -2.256122213

