11

N -3.425560819 -0.093983318 -0.594691407
C -0.869232481 0.114478494 0.023394205
C 1.132617349 -1.595836749 -0.401249857
C 3.256046527 -0.105124123 -0.292502827
N 2.697915973 2.329358549 0.207190007
N 0.227425119 2.571639182 0.358540553
H -4.379782107 1.524413605 -0.267382811
H -4.299384957 -1.590109972 0.195263095
H 0.988660319 -3.593514064 -0.767418856
H 5.207032603 -0.671750640 -0.498663689
H -0.509683872 0.986060528 2.205359520

