15

C -2.670461711 0.668925310 -1.433124716
C -3.076523793 -0.212340399 1.210256483
C -0.409470940 0.147721875 0.209844241
C 1.527660665 -1.920546707 -0.233861620
C 3.867273567 -0.204546828 -0.202220859
O 4.054116420 1.492196836 -1.772600880
C 1.123350189 2.011768663 1.517937023
H -3.039034801 -0.657907413 -2.946116968
H -3.077248881 2.625076536 -1.872389116
H -3.763675360 1.124442375 2.598630330
H -3.644398833 -2.149167739 1.543924839
H 1.584277483 -3.297998466 1.298834258
H 1.356237901 -2.880817670 -2.051905482
H 5.448507268 -0.679441542 1.062324224
H 0.640806563 4.003275021 1.143077172

