13

C 3.728231298 0.005861590 -0.736321523
O 2.019993356 0.582135159 1.264594424
C -0.404404395 0.306978866 0.684267297
C -2.764726466 1.350366258 1.842196772
O -4.170863492 0.204833027 -0.226991389
C -1.915046357 -0.754751493 -1.182608278
O -1.688289389 -2.292215282 -3.081134725
H 3.637815046 -2.001691755 -1.216667530
H 5.605749452 0.473158150 -0.048137390
H 3.278487271 1.122760028 -2.411246391
H -1.071597583 -2.836748256 -0.576169880
H -2.920029374 3.406024169 1.795401182
H -3.376572107 0.593171746 3.657247988

