11

C -2.273332648 2.955105015 -0.816543874
C -0.070195143 1.692098245 -1.966182270
C 2.163203737 1.791430546 -2.987452780
H 3.746265276 2.913460818 -3.607867668
C 1.092553247 -0.759342469 -2.632289149
O 2.004287539 -2.432055035 -0.769559538
H 2.757970562 -1.444700271 0.553201922
H 0.421847153 -1.897860545 -4.205888319
H -1.998852366 4.992224600 -0.680532348
H -3.967020436 2.581183773 -1.935078493
H -2.616988546 2.200444097 1.072519315

