15

C -2.535489723 2.274853197 -0.619359400
C -0.519378224 0.393896025 -0.007664824
C -0.143039399 -0.881298175 2.533627209
O 2.578055521 -0.870735531 2.247420723
C 2.350892091 0.509558791 -0.054149082
C 0.988641554 -1.080653509 -1.923499026
O 1.196080816 -3.694364609 -1.927880904
H -2.672134156 3.735503890 0.833140885
H -2.155502252 3.207060064 -2.419334816
H -4.375549744 1.350458968 -0.772506377
H -0.907797861 -2.786676334 2.764535887
H -0.687597524 0.306016806 4.132103736
H 3.716489239 1.986960830 -0.428275642
H 0.883353327 -0.303824062 -3.818476492
H 2.282976355 -4.146756370 -0.539681876

