15

C -2.757754869 2.166450551 -0.564471870
C -0.402868275 0.654838120 -0.632467504
C 0.283394933 -0.797499460 2.493567793
O 2.532646007 -1.902210317 2.561687903
C 2.144331042 0.659027926 -0.187903953
C 1.188680270 -1.029834276 -2.214367278
O 1.246368072 -3.628620130 -2.013186524
H -2.627782020 3.688648169 0.819991887
H -3.118490793 3.003838388 -2.414211315
H -4.377498468 0.977422155 -0.086704320
H -1.411088260 -2.018055649 2.501327424
H -0.020478055 0.858209576 3.716098878
H 3.746348329 1.740971703 0.458095785
H 1.649650518 -0.382185298 -4.111755845
H 1.935800558 -3.952483170 -0.332740255

