18

C 2.202025004 2.441569220 -0.075729395
C 1.718388890 -2.160174562 -1.400690553
C 2.750870389 -2.048500252 1.223108000
N 1.036330682 -0.013740085 0.446200791
C -1.530490511 0.147834805 1.508106459
C -3.537918360 -0.106332489 -0.558922104
O -2.941674883 1.274657801 -2.748924576
H 2.578188463 3.429379370 1.699247684
H 0.929732592 3.559364540 -1.242940241
H 3.948131565 2.104081973 -1.101815834
H 0.075486981 -3.424996188 -1.346437706
H 4.686687595 -1.427771896 1.531895371
H 2.013919927 -3.177586270 2.775761124
H -1.781155104 -1.348179127 2.904303961
H -1.700286240 1.962984740 2.474485244
H -3.824974466 -2.105310767 -1.008935247
H -5.325963046 0.627321383 0.163658257
H -1.535973740 0.437003872 -3.557372372

