18

C 2.113742536 0.899221187 -2.105735805
C 2.984820505 -2.139230728 -0.200703333
C 2.710408159 -1.260120327 2.411181082
N 0.905995119 0.128499222 0.919442939
C -1.725588350 -0.672677059 1.190971317
C -3.500773071 0.767487094 -0.534740828
O -3.476419585 3.388358839 -0.046081482
H 0.605159280 2.285359583 -2.411305256
H 2.204962489 -0.249769165 -3.812716512
H 3.880669250 1.891071742 -1.826962216
H 1.683049103 -3.703256923 -0.589862873
H 4.198306435 -0.135605046 3.279409665
H 1.766490791 -2.518737074 3.730249752
H -1.955662637 -2.711456352 0.885764675
H -2.264005262 -0.248896470 3.142521117
H -3.072843306 0.372975737 -2.524674291
H -5.426120458 0.114835274 -0.183775242
H -1.762266497 3.887759030 0.285329200

