11

O -4.604919694 1.681197814 1.964895442
C -2.540676039 1.057457480 1.243378563
C -1.664181850 -0.751299304 -0.904761298
N 0.919047495 -0.054565464 -0.055206629
C 3.057053359 -0.808729271 -0.944577373
C 0.053542064 1.511433360 1.811485038
H -2.047877890 -2.757904176 -0.644381699
H -2.031934592 -0.149427863 -2.839787313
H 4.789554062 -0.119061609 -0.115974495
H 3.059517240 -2.111839563 -2.512044061
H 1.191662163 2.595490153 3.108119957

