17

C 4.905334293 -0.416302187 0.291182154
C 2.583731861 0.261688556 -1.267797320
C 0.339754143 1.064913924 0.308317737
H 0.890601202 2.541845930 1.647519436
C -2.056237755 1.751058456 -1.106473612
H -2.237003079 3.783904954 -1.371387987
H -2.065250218 0.858883339 -2.968074735
C -4.118253045 0.621524951 0.581453100
H -5.763186938 -0.115531827 -0.414036273
H -4.843725877 1.976262863 1.974624282
C -2.868283193 -1.421288832 2.131138505
O -0.458235020 -1.093219678 1.912571099
H 3.022185512 1.812930130 -2.563503080
H 2.010278784 -1.341188897 -2.442356839
H 5.539314486 1.194289714 1.416972603
H 4.497940295 -1.968939041 1.582786187
H 6.467779582 -0.986667603 -0.926175844

