11

C 2.343215627 0.613645171 1.026820692
C 2.282598674 1.488717737 -1.379217557
C 0.008807957 0.902990756 -2.401905040
C -1.440655596 -0.904616374 -0.746433259
C -0.234998385 -0.236635833 1.887810075
H 4.037062984 0.190656793 2.105188238
H -0.872505373 1.854497604 -3.992344939
H -3.476914410 -0.581882994 -0.875655131
H -1.112103975 -2.903711551 -1.162806046
H -1.362505140 1.233352281 2.806723115
H -0.105882734 -1.821124984 3.206451005

