11

C 2.700677562 0.560517014 0.348999458
C 2.910572655 0.316129883 -2.097572585
C 0.157695226 0.701600584 -1.594867584
C -1.734292485 -1.183224385 -0.772239415
C -0.705714139 -0.060246207 1.605341486
H 3.630441902 1.246656898 2.021852638
H -0.607258237 2.555620106 -2.060110068
H -3.675665335 -0.728273954 -1.238863100
H -1.238594400 -3.144032218 -1.106389727
H -1.718832730 1.540770961 2.381727905
H 0.062375891 -1.330532240 3.005042805

