11

N 4.126972052 -0.815153508 0.364252062
C 1.701365235 -0.187664412 0.186955878
C 0.100513021 1.903027340 0.133754853
N -4.288418063 0.020638927 -1.358469120
C -2.591633581 -0.228825803 0.361807002
N -0.247139951 -1.612757225 -0.304439868
H 4.621664462 -2.629850249 0.100754358
H 5.470648585 0.516137911 0.286181731
H 0.073226094 3.004446520 -1.612050958
H -5.997965983 0.357455832 -0.556314868
H -2.945544154 -0.287871259 2.391446219

