29

C     4.39651   0.07188  -0.50485
O     3.03008   0.46250  -0.25316
C     2.34032  -0.34851   0.53433
O     2.77126  -1.35260   1.07260
C     0.99795   0.15470   0.89708
O     0.80308   1.46385   1.08365
C    -0.52237   1.66548   1.54972
O    -0.92281   2.78157   1.83081
C    -1.05872   0.35520   1.60719
C    -2.37789   0.00794   1.90846
N    -3.48450  -0.23719   2.19123
C    -1.11038   0.89577  -1.15119
C    -2.32688  -0.00320  -1.25233
O    -2.14980  -1.24082  -1.44973
O    -3.44916   0.56765  -1.17664
C     0.09936   0.57548  -1.51137
C     0.61674  -0.71548  -2.12435
O     1.23618  -1.62289  -1.50883
O     0.41346  -0.66766  -3.37090
N    -0.07296  -0.53371   1.22236
C    -0.28191  -1.98234   1.13187
H     4.94944  -0.01026   0.44816
H     4.83748   0.85727  -1.12874
H     4.42185  -0.89398  -1.02738
H    -1.35591   1.92868  -0.85303
H     0.90056   1.34557  -1.39885
H     0.67641  -2.49513   1.14145
H    -0.88609  -2.29784   1.99412
H    -0.83142  -2.19586   0.19909
29

C     4.39740   0.07180  -0.50439
O     3.03142   0.46283  -0.25473
C     2.33797  -0.34759   0.53037
O     2.76803  -1.34841   1.07362
C     0.98884   0.15683   0.86779
O     0.80360   1.46581   1.08252
C    -0.51976   1.66648   1.54619
O    -0.92220   2.77975   1.83220
C    -1.06068   0.35507   1.59409
C    -2.37823   0.00898   1.90585
N    -3.48360  -0.23686   2.19149
C    -1.11159   0.89356  -1.13788
C    -2.32700  -0.00359  -1.25101
O    -2.14961  -1.24055  -1.45049
O    -3.44905   0.56806  -1.17751
C     0.11062   0.56774  -1.48348
C     0.61823  -0.71574  -2.11983
O     1.23790  -1.62644  -1.50977
O     0.41113  -0.66239  -3.36436
N    -0.07259  -0.53524   1.22384
C    -0.28289  -1.98284   1.13129
H     4.94954  -0.01023   0.44840
H     4.83804   0.85707  -1.12863
H     4.42215  -0.89408  -1.02713
H    -1.35608   1.92885  -0.85489
H     0.89923   1.34540  -1.39945
H     0.67605  -2.49547   1.14204
H    -0.88662  -2.29823   1.99375
H    -0.83113  -2.19711   0.19885
29

C     4.39829   0.07172  -0.50393
O     3.03275   0.46317  -0.25629
C     2.33561  -0.34668   0.52641
O     2.76479  -1.34422   1.07464
C     0.97973   0.15897   0.83850
O     0.80412   1.46777   1.08139
C    -0.51715   1.66747   1.54265
O    -0.92158   2.77794   1.83360
C    -1.06263   0.35495   1.58098
C    -2.37857   0.01002   1.90323
N    -3.48270  -0.23653   2.19175
C    -1.11280   0.89135  -1.12456
C    -2.32713  -0.00398  -1.24969
O    -2.14943  -1.24028  -1.45124
O    -3.44894   0.56847  -1.17839
C     0.12188   0.56000  -1.45558
C     0.61973  -0.71599  -2.11530
O     1.23962  -1.62999  -1.51070
O     0.40881  -0.65713  -3.35782
N    -0.07222  -0.53676   1.22531
C    -0.28387  -1.98334   1.13070
H     4.94964  -0.01020   0.44863
H     4.83860   0.85688  -1.12851
H     4.42244  -0.89418  -1.02687
H    -1.35625   1.92903  -0.85676
H     0.89790   1.34523  -1.40006
H     0.67569  -2.49580   1.14262
H    -0.88716  -2.29863   1.99338
H    -0.83084  -2.19835   0.19861
29

C     4.39917   0.07164  -0.50347
O     3.03409   0.46350  -0.25785
C     2.33326  -0.34576   0.52244
O     2.76155  -1.34003   1.07566
C     0.97061   0.16110   0.80922
O     0.80464   1.46973   1.08027
C    -0.51454   1.66847   1.53911
O    -0.92097   2.77612   1.83499
C    -1.06458   0.35482   1.56788
C    -2.37890   0.01106   1.90061
N    -3.48180  -0.23620   2.19201
C    -1.11400   0.88915  -1.11125
C    -2.32725  -0.00438  -1.24837
O    -2.14924  -1.24001  -1.45200
O    -3.44883   0.56888  -1.17927
C     0.13314   0.55225  -1.42769
C     0.62123  -0.71625  -2.11078
O     1.24134  -1.63354  -1.51164
O     0.40648  -0.65186  -3.35129
N    -0.07185  -0.53828   1.22679
C    -0.28485  -1.98384   1.13012
H     4.94973  -0.01018   0.44886
H     4.83916   0.85668  -1.12840
H     4.42273  -0.89428  -1.02662
H    -1.35642   1.92920  -0.85862
H     0.89657   1.34506  -1.40066
H     0.67534  -2.49614   1.14321
H    -0.88769  -2.29903   1.99301
H    -0.83055  -2.19959   0.19838
29

C     4.40006   0.07156  -0.50301
O     3.03543   0.46383  -0.25941
C     2.33090  -0.34485   0.51848
O     2.75831  -1.33584   1.07667
C     0.96150   0.16324   0.77993
O     0.80517   1.47169   1.07914
C    -0.51193   1.66947   1.53557
O    -0.92035   2.77430   1.83638
C    -1.06653   0.35469   1.55478
C    -2.37924   0.01210   1.89800
N    -3.48089  -0.23588   2.19227
C    -1.11521   0.88694  -1.09794
C    -2.32738  -0.00477  -1.24706
O    -2.14905  -1.23973  -1.45276
O    -3.44871   0.56929  -1.18014
C     0.14440   0.54451  -1.39980
C     0.62273  -0.71650  -2.10626
O     1.24306  -1.63710  -1.51258
O     0.40416  -0.64659  -3.34475
N    -0.07148  -0.53980   1.22827
C    -0.28583  -1.98434   1.12953
H     4.94983  -0.01015   0.44909
H     4.83972   0.85649  -1.12828
H     4.42302  -0.89439  -1.02637
H    -1.35659   1.92938  -0.86048
H     0.89525   1.34489  -1.40127
H     0.67498  -2.49647   1.14380
H    -0.88822  -2.29943   1.99264
H    -0.83026  -2.20083   0.19814
29

C     4.40094   0.07148  -0.50255
O     3.03677   0.46417  -0.26098
C     2.32855  -0.34393   0.51452
O     2.75508  -1.33165   1.07769
C     0.95239   0.16537   0.75064
O     0.80569   1.47364   1.07802
C    -0.50932   1.67047   1.53204
O    -0.91974   2.77249   1.83777
C    -1.06848   0.35457   1.54167
C    -2.37958   0.01313   1.89538
N    -3.47999  -0.23555   2.19253
C    -1.11642   0.88473  -1.08462
C    -2.32750  -0.00516  -1.24574
O    -2.14886  -1.23946  -1.45351
O    -3.44860   0.56970  -1.18102
C     0.15566   0.53677  -1.37190
C     0.62423  -0.71676  -2.10173
O     1.24478  -1.64065  -1.51352
O     0.40183  -0.64132  -3.33821
N    -0.07110  -0.54133   1.22974
C    -0.28681  -1.98484   1.12894
H     4.94993  -0.01012   0.44932
H     4.84028   0.85629  -1.12817
H     4.42331  -0.89449  -1.02612
H    -1.35676   1.92956  -0.86234
H     0.89392   1.34473  -1.40188
H     0.67462  -2.49681   1.14439
H    -0.88875  -2.29982   1.99227
H    -0.82997  -2.20208   0.19790
29

C     4.40183   0.07139  -0.50210
O     3.03811   0.46450  -0.26254
C     2.32619  -0.34302   0.51055
O     2.75184  -1.32746   1.07871
C     0.94328   0.16751   0.72135
O     0.80621   1.47560   1.07689
C    -0.50671   1.67147   1.52850
O    -0.91912   2.77067   1.83917
C    -1.07044   0.35444   1.52857
C    -2.37991   0.01417   1.89276
N    -3.47909  -0.23522   2.19278
C    -1.11763   0.88252  -1.07131
C    -2.32762  -0.00556  -1.24442
O    -2.14868  -1.23919  -1.45427
O    -3.44849   0.57011  -1.18189
C     0.16692   0.52903  -1.34401
C     0.62573  -0.71701  -2.09721
O     1.24650  -1.64420  -1.51445
O     0.39951  -0.63605  -3.33168
N    -0.07073  -0.54285   1.23122
C    -0.28779  -1.98534   1.12836
H     4.95002  -0.01009   0.44955
H     4.84084   0.85610  -1.12805
H     4.42361  -0.89459  -1.02587
H    -1.35693   1.92973  -0.86421
H     0.89259   1.34456  -1.40248
H     0.67427  -2.49714   1.14498
H    -0.88928  -2.30022   1.99190
H    -0.82968  -2.20332   0.19766
29

C     4.40272   0.07131  -0.50164
O     3.03945   0.46483  -0.26410
C     2.32383  -0.34210   0.50659
O     2.74860  -1.32327   1.07972
C     0.93417   0.16964   0.69207
O     0.80673   1.47756   1.07576
C    -0.50410   1.67246   1.52496
O    -0.91851   2.76885   1.84056
C    -1.07239   0.35432   1.51547
C    -2.38025   0.01521   1.89015
N    -3.47819  -0.23489   2.19304
C    -1.11883   0.88032  -1.05800
C    -2.32775  -0.00595  -1.24310
O    -2.14849  -1.23892  -1.45502
O    -3.44838   0.57052  -1.18277
C     0.17818   0.52129  -1.31611
C     0.62723  -0.71727  -2.09269
O     1.24822  -1.64775  -1.51539
O     0.39718  -0.63079  -3.32514
N    -0.07036  -0.54437   1.23270
C    -0.28877  -1.98585   1.12777
H     4.95012  -0.01006   0.44978
H     4.84140   0.85590  -1.12794
H     4.42390  -0.89469  -1.02562
H    -1.35711   1.92991  -0.86607
H     0.89126   1.34439  -1.40309
H     0.67391  -2.49748   1.14556
H    -0.88981  -2.30062   1.99153
H    -0.82938  -2.20456   0.19742
29

C     4.40360   0.07123  -0.50118
O     3.04079   0.46516  -0.26566
C     2.32148  -0.34119   0.50263
O     2.74537  -1.31908   1.08074
C     0.92506   0.17178   0.66278
O     0.80725   1.47952   1.07464
C    -0.50149   1.67346   1.52143
O    -0.91789   2.76704   1.84195
C    -1.07434   0.35419   1.50236
C    -2.38059   0.01625   1.88753
N    -3.47729  -0.23456   2.19330
C    -1.12004   0.87811  -1.04468
C    -2.32787  -0.00634  -1.24178
O    -2.14830  -1.23864  -1.45578
O    -3.44827   0.57094  -1.18364
C     0.18944   0.51355  -1.28822
C     0.62873  -0.71752  -2.08816
O     1.24994  -1.65130  -1.51633
O     0.39485  -0.62552  -3.31860
N    -0.06999  -0.54590   1.23417
C    -0.28975  -1.98635   1.12718
H     4.95022  -0.01003   0.45001
H     4.84196   0.85571  -1.12782
H     4.42419  -0.89480  -1.02537
H    -1.35728   1.93009  -0.86793
H     0.88993   1.34422  -1.40369
H     0.67355  -2.49782   1.14615
H    -0.89034  -2.30102   1.99116
H    -0.82909  -2.20580   0.19719
29

C     4.40449   0.07115  -0.50072
O     3.04213   0.46550  -0.26723
C     2.31912  -0.34027   0.49867
O     2.74213  -1.31489   1.08176
C     0.91595   0.17391   0.63349
O     0.80778   1.48147   1.07351
C    -0.49888   1.67446   1.51789
O    -0.91728   2.76522   1.84334
C    -1.07629   0.35407   1.48926
C    -2.38092   0.01729   1.88492
N    -3.47638  -0.23423   2.19356
C    -1.12125   0.87590  -1.03137
C    -2.32800  -0.00674  -1.24046
O    -2.14811  -1.23837  -1.45653
O    -3.44815   0.57135  -1.18452
C     0.20070   0.50580  -1.26032
C     0.63022  -0.71778  -2.08364
O     1.25166  -1.65485  -1.51727
O     0.39253  -0.62025  -3.31206
N    -0.06962  -0.54742   1.23565
C    -0.29073  -1.98685   1.12660
H     4.95031  -0.01000   0.45024
H     4.84252   0.85552  -1.12771
H     4.42448  -0.89490  -1.02512
H    -1.35745   1.93026  -0.86979
H     0.88860   1.34406  -1.40430
H     0.67320  -2.49815   1.14674
H    -0.89087  -2.30141   1.99079
H    -0.82880  -2.20704   0.19695
29

C     4.40537   0.07107  -0.50026
O     3.04347   0.46583  -0.26879
C     2.31677  -0.33935   0.49470
O     2.73889  -1.31071   1.08278
C     0.90684   0.17605   0.60421
O     0.80830   1.48343   1.07239
C    -0.49627   1.67546   1.51435
O    -0.91666   2.76341   1.84473
C    -1.07824   0.35394   1.47616
C    -2.38126   0.01833   1.88230
N    -3.47548  -0.23390   2.19382
C    -1.12245   0.87370  -1.01805
C    -2.32812  -0.00713  -1.23915
O    -2.14792  -1.23810  -1.45729
O    -3.44804   0.57176  -1.18539
C     0.21196   0.49806  -1.23243
C     0.63172  -0.71803  -2.07912
O     1.25337  -1.65840  -1.51821
O     0.39020  -0.61498  -3.30553
N    -0.06924  -0.54894   1.23712
C    -0.29171  -1.98735   1.12601
H     4.95041  -0.00998   0.45047
H     4.84308   0.85532  -1.12759
H     4.42477  -0.89500  -1.02486
H    -1.35762   1.93044  -0.87166
H     0.88727   1.34389  -1.40490
H     0.67284  -2.49849   1.14733
H    -0.89140  -2.30181   1.99042
H    -0.82851  -2.20829   0.19671
29

C     4.40626   0.07099  -0.49980
O     3.04481   0.46616  -0.27035
C     2.31441  -0.33844   0.49074
O     2.73565  -1.30652   1.08379
C     0.89773   0.17818   0.57492
O     0.80882   1.48539   1.07126
C    -0.49366   1.67646   1.51082
O    -0.91605   2.76159   1.84613
C    -1.08020   0.35382   1.46305
C    -2.38159   0.01937   1.87968
N    -3.47458  -0.23358   2.19408
C    -1.12366   0.87149  -1.00474
C    -2.32825  -0.00752  -1.23783
O    -2.14774  -1.23782  -1.45804
O    -3.44793   0.57217  -1.18627
C     0.22322   0.49032  -1.20453
C     0.63322  -0.71829  -2.07459
O     1.25509  -1.66195  -1.51914
O     0.38788  -0.60972  -3.29899
N    -0.06887  -0.55046   1.23860
C    -0.29268  -1.98785   1.12542
H     4.95051  -0.00995   0.45070
H     4.84364   0.85513  -1.12748
H     4.42506  -0.89510  -1.02461
H    -1.35779   1.93061  -0.87352
H     0.88594   1.34372  -1.40551
H     0.67248  -2.49882   1.14792
H    -0.89193  -2.30221   1.99005
H    -0.82822  -2.20953   0.19647
29

C     4.40714   0.07091  -0.49934
O     3.04615   0.46649  -0.27191
C     2.31206  -0.33752   0.48678
O     2.73242  -1.30233   1.08481
C     0.88862   0.18032   0.54563
O     0.80934   1.48735   1.07013
C    -0.49105   1.67745   1.50728
O    -0.91543   2.75977   1.84752
C    -1.08215   0.35369   1.44995
C    -2.38193   0.02041   1.87707
N    -3.47368  -0.23325   2.19433
C    -1.12487   0.86928  -0.99143
C    -2.32837  -0.00791  -1.23651
O    -2.14755  -1.23755  -1.45880
O    -3.44782   0.57258  -1.18714
C     0.23448   0.48258  -1.17664
C     0.63472  -0.71854  -2.07007
O     1.25681  -1.66550  -1.52008
O     0.38555  -0.60445  -3.29245
N    -0.06850  -0.55199   1.24008
C    -0.29366  -1.98835   1.12484
H     4.95060  -0.00992   0.45093
H     4.84420   0.85493  -1.12736
H     4.42536  -0.89521  -1.02436
H    -1.35796   1.93079  -0.87538
H     0.88462   1.34355  -1.40611
H     0.67213  -2.49916   1.14850
H    -0.89247  -2.30261   1.98968
H    -0.82793  -2.21077   0.19624
29

C     4.40803   0.07083  -0.49888
O     3.04749   0.46683  -0.27348
C     2.30970  -0.33661   0.48281
O     2.72918  -1.29814   1.08583
C     0.87951   0.18245   0.51635
O     0.80986   1.48931   1.06901
C    -0.48844   1.67845   1.50374
O    -0.91482   2.75796   1.84891
C    -1.08410   0.35357   1.43685
C    -2.38227   0.02145   1.87445
N    -3.47278  -0.23292   2.19459
C    -1.12608   0.86708  -0.97811
C    -2.32849  -0.00831  -1.23519
O    -2.14736  -1.23728  -1.45956
O    -3.44771   0.57299  -1.18802
C     0.24573   0.47484  -1.14874
C     0.63622  -0.71880  -2.06555
O     1.25853  -1.66905  -1.52102
O     0.38322  -0.59918  -3.28591
N    -0.06813  -0.55351   1.24155
C    -0.29464  -1.98885   1.12425
H     4.95070  -0.00989   0.45116
H     4.84476   0.85474  -1.12725
H     4.42565  -0.89531  -1.02411
H    -1.35813   1.93097  -0.87725
H     0.88329   1.34338  -1.40672
H     0.67177  -2.49949   1.14909
H    -0.89300  -2.30301   1.98931
H    -0.82764  -2.21201   0.19600
29

C     4.40892   0.07075  -0.49842
O     3.04883   0.46716  -0.27504
C     2.30735  -0.33569   0.47885
O     2.72594  -1.29395   1.08685
C     0.87040   0.18459   0.48706
O     0.81039   1.49126   1.06788
C    -0.48583   1.67945   1.50020
O    -0.91420   2.75614   1.85030
C    -1.08605   0.35344   1.42374
C    -2.38260   0.02249   1.87183
N    -3.47187  -0.23259   2.19485
C    -1.12728   0.86487  -0.96480
C    -2.32862  -0.00870  -1.23387
O    -2.14717  -1.23701  -1.46031
O    -3.44759   0.57340  -1.18889
C     0.25699   0.46710  -1.12085
C     0.63772  -0.71905  -2.06102
O     1.26025  -1.67260  -1.52196
O     0.38090  -0.59391  -3.27938
N    -0.06776  -0.55503   1.24303
C    -0.29562  -1.98936   1.12366
H     4.95080  -0.00986   0.45139
H     4.84531   0.85454  -1.12713
H     4.42594  -0.89541  -1.02386
H    -1.35831   1.93114  -0.87911
H     0.88196   1.34322  -1.40733
H     0.67141  -2.49983   1.14968
H    -0.89353  -2.30340   1.98894
H    -0.82735  -2.21325   0.19576
29

C     4.40980   0.07066  -0.49796
O     3.05017   0.46749  -0.27660
C     2.30499  -0.33478   0.47489
O     2.72270  -1.28976   1.08786
C     0.86129   0.18672   0.45777
O     0.81091   1.49322   1.06676
C    -0.48322   1.68045   1.49667
O    -0.91359   2.75432   1.85169
C    -1.08800   0.35332   1.41064
C    -2.38294   0.02353   1.86922
N    -3.47097  -0.23226   2.19511
C    -1.12849   0.86266  -0.95149
C    -2.32874  -0.00909  -1.23255
O    -2.14698  -1.23673  -1.46107
O    -3.44748   0.57381  -1.18977
C     0.26825   0.45935  -1.09296
C     0.63922  -0.71931  -2.05650
O     1.26197  -1.67615  -1.52290
O     0.37857  -0.58864  -3.27284
N    -0.06738  -0.55656   1.24450
C    -0.29660  -1.98986   1.12308
H     4.95090  -0.00983   0.45162
H     4.84587   0.85435  -1.12702
H     4.42623  -0.89551  -1.02361
H    -1.35848   1.93132  -0.88097
H     0.88063   1.34305  -1.40793
H     0.67106  -2.50016   1.15027
H    -0.89406  -2.30380   1.98857
H    -0.82706  -2.21450   0.19552
29

C     4.41069   0.07058  -0.49750
O     3.05150   0.46782  -0.27817
C     2.30264  -0.33386   0.47092
O     2.71947  -1.28557   1.08888
C     0.85218   0.18886   0.42848
O     0.81143   1.49518   1.06563
C    -0.48061   1.68145   1.49313
O    -0.91297   2.75251   1.85309
C    -1.08996   0.35319   1.39754
C    -2.38328   0.02457   1.86660
N    -3.47007  -0.23193   2.19537
C    -1.12970   0.86046  -0.93817
C    -2.32887  -0.00949  -1.23123
O    -2.14680  -1.23646  -1.46182
O    -3.44737   0.57423  -1.19064
C     0.27951   0.45161  -1.06506
C     0.64072  -0.71956  -2.05198
O     1.26369  -1.67970  -1.52383
O     0.37625  -0.58338  -3.26630
N    -0.06701  -0.55808   1.24598
C    -0.29758  -1.99036   1.12249
H     4.95099  -0.00981   0.45185
H     4.84643   0.85415  -1.12690
H     4.42652  -0.89561  -1.02336
H    -1.35865   1.93150  -0.88283
H     0.87930   1.34288  -1.40854
H     0.67070  -2.50050   1.15086
H    -0.89459  -2.30420   1.98820
H    -0.82677  -2.21574   0.19528
29

C     4.41157   0.07050  -0.49704
O     3.05284   0.46816  -0.27973
C     2.30028  -0.33295   0.46696
O     2.71623  -1.28138   1.08990
C     0.84307   0.19099   0.39920
O     0.81195   1.49714   1.06451
C    -0.47800   1.68244   1.48959
O    -0.91236   2.75069   1.85448
C    -1.09191   0.35307   1.38444
C    -2.38361   0.02561   1.86399
N    -3.46917  -0.23160   2.19563
C    -1.13090   0.85825  -0.92486
C    -2.32899  -0.00988  -1.22992
O    -2.14661  -1.23619  -1.46258
O    -3.44726   0.57464  -1.19152
C     0.29077   0.44387  -1.03717
C     0.64221  -0.71982  -2.04745
O     1.26541  -1.68325  -1.52477
O     0.37392  -0.57811  -3.25977
N    -0.06664  -0.55960   1.24746
C    -0.29856  -1.99086   1.12190
H     4.95109  -0.00978   0.45208
H     4.84699   0.85396  -1.12679
H     4.42681  -0.89572  -1.02311
H    -1.35882   1.93167  -0.88470
H     0.87797   1.34271  -1.40914
H     0.67034  -2.50083   1.15145
H    -0.89512  -2.30460   1.98783
H    -0.82647  -2.21698   0.19505
29

C     4.41246   0.07042  -0.49658
O     3.05418   0.46849  -0.28129
C     2.29793  -0.33203   0.46300
O     2.71299  -1.27719   1.09091
C     0.83396   0.19313   0.36991
O     0.81247   1.49910   1.06338
C    -0.47539   1.68344   1.48606
O    -0.91175   2.74888   1.85587
C    -1.09386   0.35294   1.37133
C    -2.38395   0.02665   1.86137
N    -3.46827  -0.23128   2.19589
C    -1.13211   0.85604  -0.91155
C    -2.32911  -0.01027  -1.22860
O    -2.14642  -1.23592  -1.46333
O    -3.44715   0.57505  -1.19239
C     0.30203   0.43613  -1.00927
C     0.64371  -0.72007  -2.04293
O     1.26713  -1.68680  -1.52571
O     0.37159  -0.57284  -3.25323
N    -0.06627  -0.56112   1.24893
C    -0.29954  -1.99136   1.12132
H     4.95119  -0.00975   0.45231
H     4.84755   0.85376  -1.12667
H     4.42711  -0.89582  -1.02285
H    -1.35899   1.93185  -0.88656
H     0.87664   1.34255  -1.40975
H     0.66999  -2.50117   1.15203
H    -0.89565  -2.30499   1.98746
H    -0.82618  -2.21822   0.19481
29

C     4.41335   0.07034  -0.49612
O     3.05552   0.46882  -0.28285
C     2.29557  -0.33112   0.45904
O     2.70975  -1.27300   1.09193
C     0.82485   0.19526   0.34062
O     0.81300   1.50105   1.06225
C    -0.47278   1.68444   1.48252
O    -0.91113   2.74706   1.85726
C    -1.09581   0.35281   1.35823
C    -2.38429   0.02769   1.85875
N    -3.46737  -0.23095   2.19614
C    -1.13332   0.85384  -0.89823
C    -2.32924  -0.01067  -1.22728
O    -2.14623  -1.23564  -1.46409
O    -3.44703   0.57546  -1.19327
C     0.31329   0.42839  -0.98138
C     0.64521  -0.72033  -2.03841
O     1.26885  -1.69035  -1.52665
O     0.36927  -0.56757  -3.24669
N    -0.06590  -0.56265   1.25041
C    -0.30052  -1.99186   1.12073
H     4.95128  -0.00972   0.45254
H     4.84811   0.85357  -1.12656
H     4.42740  -0.89592  -1.02260
H    -1.35916   1.93202  -0.88842
H     0.87531   1.34238  -1.41035
H     0.66963  -2.50150   1.15262
H    -0.89618  -2.30539   1.98709
H    -0.82589  -2.21946   0.19457
29

C     4.41423   0.07026  -0.49567
O     3.05686   0.46915  -0.28442
C     2.29322  -0.33020   0.45507
O     2.70652  -1.26881   1.09295
C     0.81574   0.19740   0.31134
O     0.81352   1.50301   1.06113
C    -0.47017   1.68544   1.47898
O    -0.91052   2.74524   1.85865
C    -1.09776   0.35269   1.34513
C    -2.38462   0.02872   1.85614
N    -3.46646  -0.23062   2.19640
C    -1.13452   0.85163  -0.88492
C    -2.32936  -0.01106  -1.22596
O    -2.14605  -1.23537  -1.46484
O    -3.44692   0.57587  -1.19415
C     0.32455   0.42065  -0.95348
C     0.64671  -0.72058  -2.03388
O     1.27057  -1.69390  -1.52758
O     0.36694  -0.56231  -3.24015
N    -0.06552  -0.56417   1.25189
C    -0.30150  -1.99236   1.12014
H     4.95138  -0.00969   0.45277
H     4.84867   0.85337  -1.12644
H     4.42769  -0.89602  -1.02235
H    -1.35933   1.93220  -0.89028
H     0.87398   1.34221  -1.41096
H     0.66927  -2.50184   1.15321
H    -0.89671  -2.30579   1.98672
H    -0.82560  -2.22071   0.19433
29

C     4.41335   0.07034  -0.49612
O     3.05552   0.46882  -0.28285
C     2.29557  -0.33112   0.45904
O     2.70975  -1.27300   1.09193
C     0.82485   0.19526   0.34062
O     0.81300   1.50105   1.06225
C    -0.47278   1.68444   1.48252
O    -0.91113   2.74706   1.85726
C    -1.09581   0.35281   1.35823
C    -2.38429   0.02769   1.85875
N    -3.46737  -0.23095   2.19614
C    -1.13332   0.85384  -0.89823
C    -2.32924  -0.01067  -1.22728
O    -2.14623  -1.23564  -1.46409
O    -3.44703   0.57546  -1.19327
C     0.31329   0.42839  -0.98138
C     0.64521  -0.72033  -2.03841
O     1.26885  -1.69035  -1.52665
O     0.36927  -0.56757  -3.24669
N    -0.06590  -0.56265   1.25041
C    -0.30052  -1.99186   1.12073
H     4.95128  -0.00972   0.45254
H     4.84811   0.85357  -1.12656
H     4.42740  -0.89592  -1.02260
H    -1.35916   1.93202  -0.88842
H     0.87531   1.34238  -1.41035
H     0.66963  -2.50150   1.15262
H    -0.89618  -2.30539   1.98709
H    -0.82589  -2.21946   0.19457
29

C     4.41246   0.07042  -0.49658
O     3.05418   0.46849  -0.28129
C     2.29793  -0.33203   0.46300
O     2.71299  -1.27719   1.09091
C     0.83396   0.19313   0.36991
O     0.81247   1.49910   1.06338
C    -0.47539   1.68344   1.48606
O    -0.91175   2.74888   1.85587
C    -1.09386   0.35294   1.37133
C    -2.38395   0.02665   1.86137
N    -3.46827  -0.23128   2.19589
C    -1.13211   0.85604  -0.91155
C    -2.32911  -0.01027  -1.22860
O    -2.14642  -1.23592  -1.46333
O    -3.44715   0.57505  -1.19239
C     0.30203   0.43613  -1.00927
C     0.64371  -0.72007  -2.04293
O     1.26713  -1.68680  -1.52571
O     0.37159  -0.57284  -3.25323
N    -0.06627  -0.56112   1.24893
C    -0.29954  -1.99136   1.12132
H     4.95119  -0.00975   0.45231
H     4.84755   0.85376  -1.12667
H     4.42711  -0.89582  -1.02285
H    -1.35899   1.93185  -0.88656
H     0.87664   1.34255  -1.40975
H     0.66999  -2.50117   1.15203
H    -0.89565  -2.30499   1.98746
H    -0.82618  -2.21822   0.19481
29

C     4.41157   0.07050  -0.49704
O     3.05284   0.46816  -0.27973
C     2.30028  -0.33295   0.46696
O     2.71623  -1.28138   1.08990
C     0.84307   0.19099   0.39920
O     0.81195   1.49714   1.06451
C    -0.47800   1.68244   1.48959
O    -0.91236   2.75069   1.85448
C    -1.09191   0.35307   1.38444
C    -2.38361   0.02561   1.86399
N    -3.46917  -0.23160   2.19563
C    -1.13090   0.85825  -0.92486
C    -2.32899  -0.00988  -1.22992
O    -2.14661  -1.23619  -1.46258
O    -3.44726   0.57464  -1.19152
C     0.29077   0.44387  -1.03717
C     0.64221  -0.71982  -2.04745
O     1.26541  -1.68325  -1.52477
O     0.37392  -0.57811  -3.25977
N    -0.06664  -0.55960   1.24746
C    -0.29856  -1.99086   1.12190
H     4.95109  -0.00978   0.45208
H     4.84699   0.85396  -1.12679
H     4.42681  -0.89572  -1.02311
H    -1.35882   1.93167  -0.88470
H     0.87797   1.34271  -1.40914
H     0.67034  -2.50083   1.15145
H    -0.89512  -2.30460   1.98783
H    -0.82647  -2.21698   0.19505
29

C     4.41069   0.07058  -0.49750
O     3.05150   0.46782  -0.27817
C     2.30264  -0.33386   0.47092
O     2.71947  -1.28557   1.08888
C     0.85218   0.18886   0.42848
O     0.81143   1.49518   1.06563
C    -0.48061   1.68145   1.49313
O    -0.91297   2.75251   1.85309
C    -1.08996   0.35319   1.39754
C    -2.38328   0.02457   1.86660
N    -3.47007  -0.23193   2.19537
C    -1.12970   0.86046  -0.93817
C    -2.32887  -0.00949  -1.23123
O    -2.14680  -1.23646  -1.46182
O    -3.44737   0.57423  -1.19064
C     0.27951   0.45161  -1.06506
C     0.64072  -0.71956  -2.05198
O     1.26369  -1.67970  -1.52383
O     0.37625  -0.58338  -3.26630
N    -0.06701  -0.55808   1.24598
C    -0.29758  -1.99036   1.12249
H     4.95099  -0.00981   0.45185
H     4.84643   0.85415  -1.12690
H     4.42652  -0.89561  -1.02336
H    -1.35865   1.93150  -0.88283
H     0.87930   1.34288  -1.40854
H     0.67070  -2.50050   1.15086
H    -0.89459  -2.30420   1.98820
H    -0.82677  -2.21574   0.19528
29

C     4.40980   0.07066  -0.49796
O     3.05017   0.46749  -0.27660
C     2.30499  -0.33478   0.47489
O     2.72270  -1.28976   1.08786
C     0.86129   0.18672   0.45777
O     0.81091   1.49322   1.06676
C    -0.48322   1.68045   1.49667
O    -0.91359   2.75432   1.85169
C    -1.08800   0.35332   1.41064
C    -2.38294   0.02353   1.86922
N    -3.47097  -0.23226   2.19511
C    -1.12849   0.86266  -0.95149
C    -2.32874  -0.00909  -1.23255
O    -2.14698  -1.23673  -1.46107
O    -3.44748   0.57381  -1.18977
C     0.26825   0.45935  -1.09296
C     0.63922  -0.71931  -2.05650
O     1.26197  -1.67615  -1.52290
O     0.37857  -0.58864  -3.27284
N    -0.06738  -0.55656   1.24450
C    -0.29660  -1.98986   1.12308
H     4.95090  -0.00983   0.45162
H     4.84587   0.85435  -1.12702
H     4.42623  -0.89551  -1.02361
H    -1.35848   1.93132  -0.88097
H     0.88063   1.34305  -1.40793
H     0.67106  -2.50016   1.15027
H    -0.89406  -2.30380   1.98857
H    -0.82706  -2.21450   0.19552
29

C     4.40892   0.07075  -0.49842
O     3.04883   0.46716  -0.27504
C     2.30735  -0.33569   0.47885
O     2.72594  -1.29395   1.08685
C     0.87040   0.18459   0.48706
O     0.81039   1.49126   1.06788
C    -0.48583   1.67945   1.50020
O    -0.91420   2.75614   1.85030
C    -1.08605   0.35344   1.42374
C    -2.38260   0.02249   1.87183
N    -3.47187  -0.23259   2.19485
C    -1.12728   0.86487  -0.96480
C    -2.32862  -0.00870  -1.23387
O    -2.14717  -1.23701  -1.46031
O    -3.44759   0.57340  -1.18889
C     0.25699   0.46710  -1.12085
C     0.63772  -0.71905  -2.06102
O     1.26025  -1.67260  -1.52196
O     0.38090  -0.59391  -3.27938
N    -0.06776  -0.55503   1.24303
C    -0.29562  -1.98936   1.12366
H     4.95080  -0.00986   0.45139
H     4.84531   0.85454  -1.12713
H     4.42594  -0.89541  -1.02386
H    -1.35831   1.93114  -0.87911
H     0.88196   1.34322  -1.40733
H     0.67141  -2.49983   1.14968
H    -0.89353  -2.30340   1.98894
H    -0.82735  -2.21325   0.19576
29

C     4.40803   0.07083  -0.49888
O     3.04749   0.46683  -0.27348
C     2.30970  -0.33661   0.48281
O     2.72918  -1.29814   1.08583
C     0.87951   0.18245   0.51635
O     0.80986   1.48931   1.06901
C    -0.48844   1.67845   1.50374
O    -0.91482   2.75796   1.84891
C    -1.08410   0.35357   1.43685
C    -2.38227   0.02145   1.87445
N    -3.47278  -0.23292   2.19459
C    -1.12608   0.86708  -0.97811
C    -2.32849  -0.00831  -1.23519
O    -2.14736  -1.23728  -1.45956
O    -3.44771   0.57299  -1.18802
C     0.24573   0.47484  -1.14874
C     0.63622  -0.71880  -2.06555
O     1.25853  -1.66905  -1.52102
O     0.38322  -0.59918  -3.28591
N    -0.06813  -0.55351   1.24155
C    -0.29464  -1.98885   1.12425
H     4.95070  -0.00989   0.45116
H     4.84476   0.85474  -1.12725
H     4.42565  -0.89531  -1.02411
H    -1.35813   1.93097  -0.87725
H     0.88329   1.34338  -1.40672
H     0.67177  -2.49949   1.14909
H    -0.89300  -2.30301   1.98931
H    -0.82764  -2.21201   0.19600
29

C     4.40714   0.07091  -0.49934
O     3.04615   0.46649  -0.27191
C     2.31206  -0.33752   0.48678
O     2.73242  -1.30233   1.08481
C     0.88862   0.18032   0.54563
O     0.80934   1.48735   1.07013
C    -0.49105   1.67745   1.50728
O    -0.91543   2.75977   1.84752
C    -1.08215   0.35369   1.44995
C    -2.38193   0.02041   1.87707
N    -3.47368  -0.23325   2.19433
C    -1.12487   0.86928  -0.99143
C    -2.32837  -0.00791  -1.23651
O    -2.14755  -1.23755  -1.45880
O    -3.44782   0.57258  -1.18714
C     0.23448   0.48258  -1.17664
C     0.63472  -0.71854  -2.07007
O     1.25681  -1.66550  -1.52008
O     0.38555  -0.60445  -3.29245
N    -0.06850  -0.55199   1.24008
C    -0.29366  -1.98835   1.12484
H     4.95060  -0.00992   0.45093
H     4.84420   0.85493  -1.12736
H     4.42536  -0.89521  -1.02436
H    -1.35796   1.93079  -0.87538
H     0.88462   1.34355  -1.40611
H     0.67213  -2.49916   1.14850
H    -0.89247  -2.30261   1.98968
H    -0.82793  -2.21077   0.19624
29

C     4.40626   0.07099  -0.49980
O     3.04481   0.46616  -0.27035
C     2.31441  -0.33844   0.49074
O     2.73565  -1.30652   1.08379
C     0.89773   0.17818   0.57492
O     0.80882   1.48539   1.07126
C    -0.49366   1.67646   1.51082
O    -0.91605   2.76159   1.84613
C    -1.08020   0.35382   1.46305
C    -2.38159   0.01937   1.87968
N    -3.47458  -0.23358   2.19408
C    -1.12366   0.87149  -1.00474
C    -2.32825  -0.00752  -1.23783
O    -2.14774  -1.23782  -1.45804
O    -3.44793   0.57217  -1.18627
C     0.22322   0.49032  -1.20453
C     0.63322  -0.71829  -2.07459
O     1.25509  -1.66195  -1.51914
O     0.38788  -0.60972  -3.29899
N    -0.06887  -0.55046   1.23860
C    -0.29268  -1.98785   1.12542
H     4.95051  -0.00995   0.45070
H     4.84364   0.85513  -1.12748
H     4.42506  -0.89510  -1.02461
H    -1.35779   1.93061  -0.87352
H     0.88594   1.34372  -1.40551
H     0.67248  -2.49882   1.14792
H    -0.89193  -2.30221   1.99005
H    -0.82822  -2.20953   0.19647
29

C     4.40537   0.07107  -0.50026
O     3.04347   0.46583  -0.26879
C     2.31677  -0.33935   0.49470
O     2.73889  -1.31071   1.08278
C     0.90684   0.17605   0.60421
O     0.80830   1.48343   1.07239
C    -0.49627   1.67546   1.51435
O    -0.91666   2.76341   1.84473
C    -1.07824   0.35394   1.47616
C    -2.38126   0.01833   1.88230
N    -3.47548  -0.23390   2.19382
C    -1.12245   0.87370  -1.01805
C    -2.32812  -0.00713  -1.23915
O    -2.14792  -1.23810  -1.45729
O    -3.44804   0.57176  -1.18539
C     0.21196   0.49806  -1.23243
C     0.63172  -0.71803  -2.07912
O     1.25337  -1.65840  -1.51821
O     0.39020  -0.61498  -3.30553
N    -0.06924  -0.54894   1.23712
C    -0.29171  -1.98735   1.12601
H     4.95041  -0.00998   0.45047
H     4.84308   0.85532  -1.12759
H     4.42477  -0.89500  -1.02486
H    -1.35762   1.93044  -0.87166
H     0.88727   1.34389  -1.40490
H     0.67284  -2.49849   1.14733
H    -0.89140  -2.30181   1.99042
H    -0.82851  -2.20829   0.19671
29

C     4.40449   0.07115  -0.50072
O     3.04213   0.46550  -0.26723
C     2.31912  -0.34027   0.49867
O     2.74213  -1.31489   1.08176
C     0.91595   0.17391   0.63349
O     0.80778   1.48147   1.07351
C    -0.49888   1.67446   1.51789
O    -0.91728   2.76522   1.84334
C    -1.07629   0.35407   1.48926
C    -2.38092   0.01729   1.88492
N    -3.47638  -0.23423   2.19356
C    -1.12125   0.87590  -1.03137
C    -2.32800  -0.00674  -1.24046
O    -2.14811  -1.23837  -1.45653
O    -3.44815   0.57135  -1.18452
C     0.20070   0.50580  -1.26032
C     0.63022  -0.71778  -2.08364
O     1.25166  -1.65485  -1.51727
O     0.39253  -0.62025  -3.31206
N    -0.06962  -0.54742   1.23565
C    -0.29073  -1.98685   1.12660
H     4.95031  -0.01000   0.45024
H     4.84252   0.85552  -1.12771
H     4.42448  -0.89490  -1.02512
H    -1.35745   1.93026  -0.86979
H     0.88860   1.34406  -1.40430
H     0.67320  -2.49815   1.14674
H    -0.89087  -2.30141   1.99079
H    -0.82880  -2.20704   0.19695
29

C     4.40360   0.07123  -0.50118
O     3.04079   0.46516  -0.26566
C     2.32148  -0.34119   0.50263
O     2.74537  -1.31908   1.08074
C     0.92506   0.17178   0.66278
O     0.80725   1.47952   1.07464
C    -0.50149   1.67346   1.52143
O    -0.91789   2.76704   1.84195
C    -1.07434   0.35419   1.50236
C    -2.38059   0.01625   1.88753
N    -3.47729  -0.23456   2.19330
C    -1.12004   0.87811  -1.04468
C    -2.32787  -0.00634  -1.24178
O    -2.14830  -1.23864  -1.45578
O    -3.44827   0.57094  -1.18364
C     0.18944   0.51355  -1.28822
C     0.62873  -0.71752  -2.08816
O     1.24994  -1.65130  -1.51633
O     0.39485  -0.62552  -3.31860
N    -0.06999  -0.54590   1.23417
C    -0.28975  -1.98635   1.12718
H     4.95022  -0.01003   0.45001
H     4.84196   0.85571  -1.12782
H     4.42419  -0.89480  -1.02537
H    -1.35728   1.93009  -0.86793
H     0.88993   1.34422  -1.40369
H     0.67355  -2.49782   1.14615
H    -0.89034  -2.30102   1.99116
H    -0.82909  -2.20580   0.19719
29

C     4.40272   0.07131  -0.50164
O     3.03945   0.46483  -0.26410
C     2.32383  -0.34210   0.50659
O     2.74860  -1.32327   1.07972
C     0.93417   0.16964   0.69207
O     0.80673   1.47756   1.07576
C    -0.50410   1.67246   1.52496
O    -0.91851   2.76885   1.84056
C    -1.07239   0.35432   1.51547
C    -2.38025   0.01521   1.89015
N    -3.47819  -0.23489   2.19304
C    -1.11883   0.88032  -1.05800
C    -2.32775  -0.00595  -1.24310
O    -2.14849  -1.23892  -1.45502
O    -3.44838   0.57052  -1.18277
C     0.17818   0.52129  -1.31611
C     0.62723  -0.71727  -2.09269
O     1.24822  -1.64775  -1.51539
O     0.39718  -0.63079  -3.32514
N    -0.07036  -0.54437   1.23270
C    -0.28877  -1.98585   1.12777
H     4.95012  -0.01006   0.44978
H     4.84140   0.85590  -1.12794
H     4.42390  -0.89469  -1.02562
H    -1.35711   1.92991  -0.86607
H     0.89126   1.34439  -1.40309
H     0.67391  -2.49748   1.14556
H    -0.88981  -2.30062   1.99153
H    -0.82938  -2.20456   0.19742
29

C     4.40183   0.07139  -0.50210
O     3.03811   0.46450  -0.26254
C     2.32619  -0.34302   0.51055
O     2.75184  -1.32746   1.07871
C     0.94328   0.16751   0.72135
O     0.80621   1.47560   1.07689
C    -0.50671   1.67147   1.52850
O    -0.91912   2.77067   1.83917
C    -1.07044   0.35444   1.52857
C    -2.37991   0.01417   1.89276
N    -3.47909  -0.23522   2.19278
C    -1.11763   0.88252  -1.07131
C    -2.32762  -0.00556  -1.24442
O    -2.14868  -1.23919  -1.45427
O    -3.44849   0.57011  -1.18189
C     0.16692   0.52903  -1.34401
C     0.62573  -0.71701  -2.09721
O     1.24650  -1.64420  -1.51445
O     0.39951  -0.63605  -3.33168
N    -0.07073  -0.54285   1.23122
C    -0.28779  -1.98534   1.12836
H     4.95002  -0.01009   0.44955
H     4.84084   0.85610  -1.12805
H     4.42361  -0.89459  -1.02587
H    -1.35693   1.92973  -0.86421
H     0.89259   1.34456  -1.40248
H     0.67427  -2.49714   1.14498
H    -0.88928  -2.30022   1.99190
H    -0.82968  -2.20332   0.19766
29

C     4.40094   0.07148  -0.50255
O     3.03677   0.46417  -0.26098
C     2.32855  -0.34393   0.51452
O     2.75508  -1.33165   1.07769
C     0.95239   0.16537   0.75064
O     0.80569   1.47364   1.07802
C    -0.50932   1.67047   1.53204
O    -0.91974   2.77249   1.83777
C    -1.06848   0.35457   1.54167
C    -2.37958   0.01313   1.89538
N    -3.47999  -0.23555   2.19253
C    -1.11642   0.88473  -1.08462
C    -2.32750  -0.00516  -1.24574
O    -2.14886  -1.23946  -1.45351
O    -3.44860   0.56970  -1.18102
C     0.15566   0.53677  -1.37190
C     0.62423  -0.71676  -2.10173
O     1.24478  -1.64065  -1.51352
O     0.40183  -0.64132  -3.33821
N    -0.07110  -0.54133   1.22974
C    -0.28681  -1.98484   1.12894
H     4.94993  -0.01012   0.44932
H     4.84028   0.85629  -1.12817
H     4.42331  -0.89449  -1.02612
H    -1.35676   1.92956  -0.86234
H     0.89392   1.34473  -1.40188
H     0.67462  -2.49681   1.14439
H    -0.88875  -2.29982   1.99227
H    -0.82997  -2.20208   0.19790
29

C     4.40006   0.07156  -0.50301
O     3.03543   0.46383  -0.25941
C     2.33090  -0.34485   0.51848
O     2.75831  -1.33584   1.07667
C     0.96150   0.16324   0.77993
O     0.80517   1.47169   1.07914
C    -0.51193   1.66947   1.53557
O    -0.92035   2.77430   1.83638
C    -1.06653   0.35469   1.55478
C    -2.37924   0.01210   1.89800
N    -3.48089  -0.23588   2.19227
C    -1.11521   0.88694  -1.09794
C    -2.32738  -0.00477  -1.24706
O    -2.14905  -1.23973  -1.45276
O    -3.44871   0.56929  -1.18014
C     0.14440   0.54451  -1.39980
C     0.62273  -0.71650  -2.10626
O     1.24306  -1.63710  -1.51258
O     0.40416  -0.64659  -3.34475
N    -0.07148  -0.53980   1.22827
C    -0.28583  -1.98434   1.12953
H     4.94983  -0.01015   0.44909
H     4.83972   0.85649  -1.12828
H     4.42302  -0.89439  -1.02637
H    -1.35659   1.92938  -0.86048
H     0.89525   1.34489  -1.40127
H     0.67498  -2.49647   1.14380
H    -0.88822  -2.29943   1.99264
H    -0.83026  -2.20083   0.19814
29

C     4.39917   0.07164  -0.50347
O     3.03409   0.46350  -0.25785
C     2.33326  -0.34576   0.52244
O     2.76155  -1.34003   1.07566
C     0.97061   0.16110   0.80922
O     0.80464   1.46973   1.08027
C    -0.51454   1.66847   1.53911
O    -0.92097   2.77612   1.83499
C    -1.06458   0.35482   1.56788
C    -2.37890   0.01106   1.90061
N    -3.48180  -0.23620   2.19201
C    -1.11400   0.88915  -1.11125
C    -2.32725  -0.00438  -1.24837
O    -2.14924  -1.24001  -1.45200
O    -3.44883   0.56888  -1.17927
C     0.13314   0.55225  -1.42769
C     0.62123  -0.71625  -2.11078
O     1.24134  -1.63354  -1.51164
O     0.40648  -0.65186  -3.35129
N    -0.07185  -0.53828   1.22679
C    -0.28485  -1.98384   1.13012
H     4.94973  -0.01018   0.44886
H     4.83916   0.85668  -1.12840
H     4.42273  -0.89428  -1.02662
H    -1.35642   1.92920  -0.85862
H     0.89657   1.34506  -1.40066
H     0.67534  -2.49614   1.14321
H    -0.88769  -2.29903   1.99301
H    -0.83055  -2.19959   0.19838
29

C     4.39829   0.07172  -0.50393
O     3.03275   0.46317  -0.25629
C     2.33561  -0.34668   0.52641
O     2.76479  -1.34422   1.07464
C     0.97973   0.15897   0.83850
O     0.80412   1.46777   1.08139
C    -0.51715   1.66747   1.54265
O    -0.92158   2.77794   1.83360
C    -1.06263   0.35495   1.58098
C    -2.37857   0.01002   1.90323
N    -3.48270  -0.23653   2.19175
C    -1.11280   0.89135  -1.12456
C    -2.32713  -0.00398  -1.24969
O    -2.14943  -1.24028  -1.45124
O    -3.44894   0.56847  -1.17839
C     0.12188   0.56000  -1.45558
C     0.61973  -0.71599  -2.11530
O     1.23962  -1.62999  -1.51070
O     0.40881  -0.65713  -3.35782
N    -0.07222  -0.53676   1.22531
C    -0.28387  -1.98334   1.13070
H     4.94964  -0.01020   0.44863
H     4.83860   0.85688  -1.12851
H     4.42244  -0.89418  -1.02687
H    -1.35625   1.92903  -0.85676
H     0.89790   1.34523  -1.40006
H     0.67569  -2.49580   1.14262
H    -0.88716  -2.29863   1.99338
H    -0.83084  -2.19835   0.19861
29

C     4.39740   0.07180  -0.50439
O     3.03142   0.46283  -0.25473
C     2.33797  -0.34759   0.53037
O     2.76803  -1.34841   1.07362
C     0.98884   0.15683   0.86779
O     0.80360   1.46581   1.08252
C    -0.51976   1.66648   1.54619
O    -0.92220   2.77975   1.83220
C    -1.06068   0.35507   1.59409
C    -2.37823   0.00898   1.90585
N    -3.48360  -0.23686   2.19149
C    -1.11159   0.89356  -1.13788
C    -2.32700  -0.00359  -1.25101
O    -2.14961  -1.24055  -1.45049
O    -3.44905   0.56806  -1.17751
C     0.11062   0.56774  -1.48348
C     0.61823  -0.71574  -2.11983
O     1.23790  -1.62644  -1.50977
O     0.41113  -0.66239  -3.36436
N    -0.07259  -0.53524   1.22384
C    -0.28289  -1.98284   1.13129
H     4.94954  -0.01023   0.44840
H     4.83804   0.85707  -1.12863
H     4.42215  -0.89408  -1.02713
H    -1.35608   1.92885  -0.85489
H     0.89923   1.34540  -1.39945
H     0.67605  -2.49547   1.14204
H    -0.88662  -2.29823   1.99375
H    -0.83113  -2.19711   0.19885
