15

C -3.727567040 0.190480425 0.438863438
C -1.288060910 -0.901121439 -0.619837879
C 1.109670235 0.180406843 0.604208899
C 3.517972111 -1.064788692 -0.400995575
C 1.232072294 2.927613884 0.239470422
N 1.327583342 5.070874925 -0.077273018
H -3.881526184 -0.153947125 2.468990695
H -3.830942297 2.228220312 0.133820067
H -5.367229732 -0.667098266 -0.468534784
H -1.246149298 -2.948234406 -0.340850525
H -1.188568909 -0.579971196 -2.659295697
H 0.996456573 -0.125031594 2.648214551
H 3.459755432 -3.091521699 -0.028754016
H 3.688805470 -0.782599707 -2.436329765
H 5.197728952 -0.283282248 0.498303186

