21

C 3.817403770 -1.184983796 1.729258519
C 2.044442746 -1.131532363 -0.539124520
C 0.095251267 0.977895834 -0.462054951
C 1.107457706 3.664173097 -0.417982304
C -2.138735695 0.671232949 -2.264497876
C -3.425953901 0.451117424 0.209350606
C -3.914352824 -2.247436842 0.962414461
H 5.088427684 -2.804702790 1.624630808
H 4.984644908 0.511448385 1.836874491
H 2.755226964 -1.332942643 3.494472951
H 3.132866714 -0.931575661 -2.287660702
H 1.071081933 -2.945250472 -0.687992930
H 2.038433398 4.091302791 -2.211129232
H 2.461822643 3.963216587 1.106758318
H -0.450129172 4.988779289 -0.161830892
H -2.541354507 2.343828163 -3.389036778
H -2.005676356 -1.023559497 -3.438435655
H -0.977855904 0.919399570 1.496883206
H -3.863722318 -2.533919304 3.002936516
H -2.794654209 -3.721145638 0.019722297
H -5.882512731 -2.539065331 0.386139871

