14

C 3.950375520 -1.817293905 -0.483447538
C 1.588310064 -0.442911779 0.230757745
C -0.734094575 -1.233674120 -0.281916033
C -3.118502301 0.128323969 0.458849144
C -2.740067203 2.931812308 0.754478295
O -3.210167851 4.110986405 2.633236412
H 5.054945574 -2.302723086 1.192752290
H 3.529514804 -3.556278882 -1.507271786
H 5.156675276 -0.639832296 -1.676573937
H 1.844898041 1.319086320 1.262239012
H -1.968142578 3.893665085 -0.943985927
H -0.977702250 -3.006895530 -1.290302031
H -4.537667327 -0.131967682 -1.028114474
H -3.917212660 -0.628661842 2.205983980

