12

C -2.134444354 -1.380215691 -0.988190627
C -0.424442862 0.177238434 0.752252311
C 2.130984133 -0.885779452 0.882548795
C 4.205052909 -1.781831682 0.973521968
C -1.431976235 4.302652577 -1.709916038
C -0.334382087 2.915404194 -0.036365020
H -1.402490876 -1.367987292 -2.913675397
H -2.220814154 -3.330822858 -0.335238435
H -4.040408120 -0.595712180 -0.996410142
H -1.209905031 0.128426298 2.665969246
H 6.049612481 -2.580649170 1.051024380
H 0.914046202 4.255899524 0.955996081

