15

C -2.537585902 1.219994109 -2.390474880
C -0.999107386 -0.493684053 -0.729787153
O 1.569913543 -0.844879543 -1.798106835
C 0.013810969 0.599646042 1.763886938
O -0.525928865 -0.724612629 3.959334901
C 2.740082679 0.105503580 0.811413192
O 3.692725933 -2.092126035 1.492609382
H -2.819974423 0.384180490 -4.252564138
H -4.383264211 1.534401356 -1.524215789
H -1.605918854 3.045264529 -2.625699504
H -1.885919347 -2.339164715 -0.487855192
H 2.529914483 -2.519952489 -0.713937491
H -0.466763128 2.587886821 2.027013877
H 0.731665314 -2.058416325 4.037561682
H 4.027305024 1.689632587 0.475373211

