19

C 3.271294293 -0.511171314 -1.873051710
C 1.697449345 0.902246809 0.025853721
O 0.970576660 3.417505559 -0.936216016
C -1.773983593 2.842594634 1.062307897
C -0.992801087 0.066750626 0.655457648
C -1.162580374 -1.512271756 3.056399684
C -2.309329946 -1.280670569 -1.536860022
H 5.087365035 0.424270538 -2.159778438
H 3.639405874 -2.418577149 -1.175004568
H 2.311568572 -0.653833542 -3.688641611
H 2.740393880 1.192540508 1.782614142
H -3.208801749 3.353069489 -0.355559416
H 1.882434805 4.716821470 -0.057933636
H -0.272761916 -0.533224795 4.636565709
H -0.266335921 -3.361058703 2.815497473
H -3.136991476 -1.844418070 3.558821244
H -1.539330971 -3.170199652 -1.879278509
H -2.170415498 -0.196893948 -3.287269055
H -4.315981911 -1.500775191 -1.104142748

