19

C 3.271695104 -0.562353922 -2.016820676
C 1.829424019 0.860794022 -0.026003614
O 1.329655672 3.435637632 -0.897608476
C -1.659122713 2.882792264 0.851316951
C -0.902596408 0.107642939 0.627564912
C -1.154438924 -1.344834708 3.101684003
C -2.255989044 -1.283187458 -1.509669641
H 5.101570843 0.335648846 -2.327767361
H 3.602585052 -2.504511027 -1.402395520
H 2.254480589 -0.600104716 -3.806677760
H 2.954480933 0.975525853 1.707515198
H -3.085596500 3.437175586 -0.541536491
H 0.631050663 4.294148469 0.786769009
H -0.249157952 -0.327949421 4.649007042
H -0.295497098 -3.218542890 2.947163196
H -3.141124628 -1.613250651 3.595014072
H -1.503473153 -3.187038189 -1.790384110
H -2.105046829 -0.258334159 -3.293407981
H -4.263798749 -1.469222415 -1.063224830

