15

C -2.377082127 -2.464401420 1.053654765
C -0.762891564 -0.240629240 0.515102341
C -0.825128447 1.891071099 -1.207647376
N -0.889440249 2.344509655 1.557908169
C 1.468215550 0.245584215 -1.141186728
O 1.672335603 -1.305004573 -3.243326497
N 3.882069933 0.901720237 -0.134192702
H -4.371871544 -1.933672480 1.128325611
H -2.134334901 -3.861727315 -0.442569739
H -1.872288998 -3.340365805 2.852172729
H 3.124712905 -2.355656601 -2.946743847
H -2.147167237 2.509075207 -2.627720377
H -2.729934756 2.663186379 2.037716662
H 3.642167218 1.704479958 1.585325620
H 4.748731499 2.180288373 -1.264452619

