13

C 1.559406911 -2.038795375 -0.136411562
C 2.635011639 0.152772830 -0.765236657
C 1.223350678 2.502923487 -0.590922707
C -1.294786181 2.340900429 -0.309206248
N -2.483169405 0.051656779 -0.048738588
C -1.054497564 -2.053187453 0.991682388
H 2.552083068 -3.818483881 -0.323776830
H -2.043073941 -3.807117046 0.540728614
H 4.545284208 0.190421012 -1.505030647
H 2.120528959 4.311250112 -0.888546181
H -2.516828205 3.981241079 -0.407292861
H -4.329074935 0.098651149 0.383062849
H -0.935519198 -1.934641475 3.074587031

