17

O -1.629025348 0.819012083 5.171939727
C 2.354455586 -0.652620545 -3.478192602
C 1.331507150 -2.933313393 -3.261223319
C -2.150217123 -0.496923024 2.904210987
C -1.647169969 1.075367000 0.537360858
C 1.044606530 1.913244106 0.302482017
C 2.722490066 1.182016888 -1.425751250
H -2.804450191 2.189556704 5.326052770
H 3.068584033 -0.073291610 -5.317056086
H 1.151458070 -4.172558425 -4.880236406
H 0.684267335 -3.657784670 -1.457592946
H -4.109372617 -1.176716301 2.881244484
H -0.918631188 -2.152162993 2.926381292
H -2.221215248 -0.015329704 -1.117910877
H -2.864308116 2.752841241 0.604951089
H 1.660712200 3.291140631 1.691954116
H 4.570714668 2.077790969 -1.385298412

