15

O -0.097424339 3.789587625 -2.102638903
C -0.514939484 2.041842350 -0.720122356
C -3.118141949 1.184920736 0.172160362
C -2.539088971 -1.135563470 1.693424455
C -0.078704183 -1.612396438 1.817590819
C 3.219934164 -0.817584887 -1.634916550
C 1.492695195 0.280913798 0.398360976
H -4.343846282 0.837406734 -1.454598486
H -4.009130488 2.693315964 1.270045962
H -3.990747138 -2.270380858 2.582385979
H 2.142549351 -1.973487271 -2.962025703
H 0.749921731 -3.196535726 2.815262088
H 4.131062213 0.701224566 -2.687244217
H 4.681835969 -2.003288989 -0.793125292
H 2.641865071 1.413235386 1.700187936

