17

C 3.523254708 -0.708307524 0.401905951
C 0.932907786 0.167467548 1.189532329
C -0.110234320 2.677946273 -1.147343550
C -3.078178040 2.460018635 -1.117069873
C -3.566123864 0.228469192 0.014868932
C -1.352137498 -1.523830228 0.796813546
O -0.841943570 -3.304908949 -1.155911795
H 3.487083801 -1.507854521 -1.491866078
H 4.885489334 0.835860976 0.473528101
H 4.167731706 -2.182019777 1.697045076
H 0.951028199 0.913787480 3.120156794
H 0.555381721 1.565795357 -2.727578910
H 0.823196088 4.495799008 -0.966920872
H -0.855152377 2.228777913 0.821775657
H -5.453189405 -0.566268698 0.155501179
H -1.779115844 -2.565032775 2.531431782
H -2.207783982 -3.227410525 -2.345069524

