16

C 3.640278115 -1.443563809 -0.420590278
O 1.691056949 0.378597502 -0.679896607
C 0.575448080 1.511583593 1.817584412
C -1.979487983 2.134999158 1.223531053
C -3.417159777 -0.089948677 0.120261207
C -1.648101283 -0.639026952 -1.936583415
H 3.064387272 -2.989227517 0.836257289
H 4.076203974 -2.200566986 -2.286286342
H 5.341423424 -0.558969574 0.342591586
H 0.827465943 -0.073645934 3.134925306
H 1.770521369 3.101696967 2.343801329
H -2.334756003 3.970556321 0.381189828
H -5.256554841 0.514169988 -0.586432680
H -3.668319289 -1.665336189 1.430540005
H -0.839446826 -2.499493653 -2.247146146
H -1.705426748 0.572668501 -3.579828176

