12

O -2.321002236 1.847113651 -1.223717096
C -2.062108794 -0.172085699 1.014677350
C -1.446235258 -2.413647326 -0.324959270
C 0.592638673 -1.104955085 1.241010717
C 2.591714574 0.314537846 0.038991494
C 4.139917016 1.615180723 -0.993817740
H -0.778457994 2.855138692 -1.255485339
H -3.335603752 0.420127314 2.496270461
H -1.966537048 0.207105782 -2.315119991
H -2.136976851 -4.257051293 0.221398990
H 1.094650200 -1.797595116 3.111639893
H 5.574183939 2.685585416 -1.912066259

