12

C 0.243723572 2.114030984 2.564823734
C -1.159535931 1.690250206 0.537264746
C -3.055489951 -0.394445236 0.265078479
C -2.446672255 -2.154692675 -1.940572078
H -0.619799914 -3.073366268 -1.667118900
H -3.880820711 -3.623189719 -2.141569642
H -2.363278830 -1.112319404 -3.720850122
H -4.929002830 0.435549387 -0.028647322
H -3.152882448 -1.468631215 2.027057794
H -0.937612108 2.918651631 -1.098589750
H 0.091689323 0.936152918 4.237209282
H 1.590518077 3.654057431 2.635654845

