16

C 3.441164325 -1.055282613 -0.825089121
O 3.673004203 0.617257893 0.950184191
C 0.620349787 1.977108440 2.180950570
C -1.289107970 1.843470183 0.414190493
C -3.300796565 -0.141416766 0.292147879
C -1.603029217 -1.533887388 -1.428285014
H 1.142544553 -1.108312316 -1.404072482
H 4.274152634 -0.565138490 -2.666771246
H 3.736725560 -3.047193165 -0.289542930
H 0.488091805 0.825220741 3.869504767
H 1.568528581 3.767227063 2.412165837
H -1.311574546 3.214873723 -1.109594287
H -5.077690752 0.511615040 -0.508514302
H -3.629059397 -1.079375204 2.092142457
H -1.165339450 -3.481372293 -0.955743690
H -1.884766690 -1.219104728 -3.433467773

