12

O 0.782607587 1.554578491 3.333196335
C 1.105571740 0.658625982 1.272730129
C 3.554052407 -0.224849535 0.402140673
C 5.545364746 -0.973896172 -0.367045360
C -1.010764559 0.349034381 -0.623847764
C -4.287577853 -0.705595238 -0.042139494
N -3.274564256 1.777870986 0.014185532
H 7.330878673 -1.635659912 -1.023182724
H -0.431360601 0.502862547 -2.585695532
H -1.572586825 -1.785918291 -0.166814818
H -4.653567405 -1.099765500 -2.064446366
H -3.066348260 2.323159869 1.847325111

