10

C -0.081334625 1.932333213 -4.123004855
O -0.059055604 3.091994640 -1.942324497
C 1.342463404 1.959850422 0.031051677
O 1.343667009 3.007454908 2.007987831
C 2.723412007 -0.467121420 -0.524038005
O 3.990572112 -1.303826291 1.630651646
H 3.704029330 -0.100929573 2.966681213
H 1.358412296 -1.868986815 -1.191362736
H 4.027939594 -0.138698962 -2.094844916
H -1.284521378 3.192042297 -5.288002473

