13

C -3.074950860 -1.342850080 -0.101471282
C -0.979365342 0.360081360 -0.975984527
O -0.128552078 2.015869557 0.955317254
C 2.508991435 1.957116366 0.680872801
C 2.644239059 -0.410255687 -0.918612177
N 3.705907037 -2.223721422 -1.821037849
H -4.719846109 -0.236546014 0.486538752
H -3.677759699 -2.591805376 -1.630870760
H -2.479701663 -2.499833634 1.499434015
H -1.455631089 1.403309637 -2.701393655
H 1.159652943 -1.838458271 -1.939814506
H 3.482244269 1.793746330 2.495563892
H 3.253765779 3.584037598 -0.363993207

