10

C -4.494763533 0.997643737 1.248221893
C -3.102182551 2.260241475 -0.907107241
H -4.276964717 3.570976454 -1.983843821
C -0.319332875 2.781218767 -0.790332806
H 1.151903441 3.912612708 0.040987253
C -0.981490433 0.972438248 -2.276077248
H -0.466135606 -0.496833035 -3.584101263
H -5.202434616 2.393733751 2.596851247
H -3.252593431 -0.298185214 2.266502119
H -6.117614937 -0.079021940 0.558680672

