12

C -2.902015050 -1.233101609 0.360602906
C 2.447952771 0.447122202 -0.129980805
C 1.207067570 2.857912376 -0.674404514
O 2.398192031 4.745248148 -1.158750523
C 1.555570843 -1.862937650 0.443002826
O -0.760855554 -2.794394561 0.709137227
H -4.539953461 -2.437875070 0.655618464
H -2.920149202 0.306298905 1.736662560
H -2.944946471 -0.464394413 -1.555418153
H 4.491620049 0.569744622 -0.203424936
H -0.874492269 2.949073652 -0.636891731
H 2.914870913 -3.361134518 0.779047758

