12

C -2.778992424 -0.566840037 -0.394971374
C 1.841389878 -0.169691775 -0.736164090
C 1.151147172 2.463683740 -0.402418558
O 1.351160340 4.079063054 -2.015471543
C 1.592523379 -1.760605976 1.374362832
O -0.468850387 -1.978392377 2.467880840
H -2.885389239 -2.471701961 -1.118378943
H -3.962523247 -0.136085452 1.209160253
H -2.642128764 0.906977587 -1.801942545
H 3.225293824 -0.556835563 -2.198725486
H 0.397855890 2.943387126 1.496819598
H 3.213622781 -2.777286681 2.175229349

