11

O 3.723690948 -2.427338524 0.019224656
C 1.540201247 -1.157803789 -0.008429067
N -0.621277794 -2.191187122 -0.283950040
C -2.440701514 -0.145350912 -0.201108112
C -0.944915748 2.229687155 0.172057863
C 1.490463523 1.594967777 0.286355585
H 3.317419371 -4.189776249 -0.201695477
H -3.796633204 -0.452537515 1.332121179
H -3.538594145 -0.093680981 -1.954957052
H -1.746834578 4.103546232 0.314784739
H 3.124614734 2.789468952 0.539509798

