9

N -3.151064720 0.025342664 0.598030950
C -1.173528011 0.165648838 -0.951103505
N 0.979369064 -1.207062808 -1.589219098
N 3.074920455 -0.444680846 0.233584001
N 2.850925548 0.767003135 2.087113574
N -0.163939373 1.242439293 -2.789850337
H -2.884266345 -0.904310711 2.232602228
H -4.294651419 1.542657362 0.674453383
H 4.697764886 -1.280678487 -0.462760196

