17

C 2.767714425 0.293314577 -2.349849510
C 1.997428911 1.365441567 2.100668655
C -0.405832820 0.591716808 2.855712923
O -2.438958374 2.110650982 1.977959611
C -3.592823351 0.092814787 0.630257810
C -1.930074688 -1.200897841 -1.219447959
C -1.853324500 -2.000524225 1.296069683
H 2.858919411 2.248474699 -2.971613360
H 2.538256188 -0.944461609 -3.984636954
H 4.480377879 -0.241284975 -1.365277444
H 2.203095420 3.106225847 1.069166696
H 3.645605215 0.610722653 3.050185244
H -0.605943044 -0.020618159 4.811098508
H -5.637921113 0.136570299 0.549189920
H 0.431856787 -0.156651606 -1.609518555
H -2.439130207 -2.234979031 -2.899353030
H -1.945265270 -3.811959337 2.227908148

