12

C -2.248712521 1.287283798 0.930007415
C -3.161524997 -1.386473066 1.313079920
H -2.354490621 -2.213423227 3.017990943
H -5.220068331 -1.428533456 1.487188514
H -2.645574245 -2.578055256 -0.293774556
C -3.361206933 2.638349992 -1.320925742
H -5.423294618 2.673537429 -1.195218817
H -2.689035734 4.582165067 -1.431835318
H -2.856713363 1.676242139 -3.078103604
C 0.064817247 2.165042478 2.094804703
H 2.100351408 2.341100626 2.209221346
N -1.835722835 2.861565953 3.304314025

