18

C 4.247848270 -0.364521159 -0.077433437
C 2.120316818 -1.353509855 -1.176611421
C -1.079496600 0.396760604 0.347243449
C -2.719646425 -1.757277035 1.239289517
C -2.172519104 1.903786764 -1.814550722
C 0.366730985 1.866640285 2.293578172
N -1.200462920 2.959577544 3.505089848
H 5.192752982 -1.323358897 1.464488292
H 2.549445294 1.682348902 2.182743089
H 5.260861338 1.194270911 -0.935007611
H 1.531960926 -3.243467925 -0.648343585
H 1.639971530 -0.793309616 -3.087720571
H -1.865716247 -2.753850468 2.826495263
H -4.588966739 -1.099315518 1.809352236
H -2.987988707 -3.092663037 -0.312413302
H -3.928652741 2.829473075 -1.257138717
H -0.856764805 3.345115990 -2.476779466
H -2.611803724 0.636263397 -3.383026712

