8

C 1.526202326 1.737424082 -1.194341171
C -0.584696248 2.890651427 -2.306786280
N -2.329403997 3.849372191 -3.175328917
C 3.545086941 0.392269028 -1.407265344
H 4.813700434 -0.657192643 -2.598676004
C 2.945484117 1.256965051 1.216980733
H 2.180790322 -0.085504287 2.572239756
H 4.035170952 2.787352194 2.050005268

