14

O 2.942848214 3.806263853 -2.171413519
C 2.309683079 1.791001805 -1.264889920
C 3.055354041 0.066681745 0.587369398
N 0.851117812 -1.593299225 0.275738462
C -1.548324575 -1.037965938 1.745887769
C -2.447391768 0.798812064 -0.316585477
C -0.055498989 0.137385338 -1.839724217
H 1.169330533 -3.449930822 -0.089125418
H 4.356148909 -0.071703088 2.150070745
H -1.102114430 -0.262855291 3.593836886
H -2.701683766 -2.734801405 1.930357013
H -2.538419290 2.779217188 0.226699728
H -4.222769658 0.244718928 -1.193000921
H -0.271091190 -0.731374504 -3.691740365

