12

C -3.475012741 -0.054027232 -0.157758097
C -1.038845756 1.115337316 0.442301303
C 2.253248412 -2.782590878 -0.250179991
N 2.990376187 -0.563762807 -0.882386676
N 1.347902943 1.658809529 -0.898216080
C 0.575825780 2.405618541 1.675920810
H -4.171989410 0.686839555 -1.953412446
H -3.221712434 -2.088542982 -0.341562611
H -4.847741299 0.344541840 1.323522358
H 3.855573214 -4.072723098 -0.565130497
H 4.690175368 -0.058401136 -1.615247997
H 1.334173762 3.509580253 3.198146642

