12

C -3.441046274 -0.299779727 0.008450799
C -0.949545577 0.635199368 0.700763246
C 1.816564149 -2.236349007 -0.915186558
N 3.210858281 -0.251867195 -0.943713504
N 2.215968594 2.121708091 -0.591437242
C 0.605203178 2.270687428 1.569915981
H -3.731884025 0.047605111 -2.005758918
H -3.572249184 -2.333045121 0.303990037
H -4.913602072 0.710593998 1.048850893
H 2.976863700 -3.962656605 -0.978674817
H 5.086538166 -0.204286858 -1.333614478
H 0.828477740 3.578457955 3.127719932

