11

O 4.288126422 -0.981281694 0.192157330
C 1.943146036 -0.174603570 0.113996066
N 0.104677032 -1.844969246 -0.176088138
C -2.270036266 -0.491257058 -0.202143323
C -1.342516298 2.185525578 0.126457600
C 1.200903586 2.432789080 0.322467893
H 0.329732548 -3.723092282 -0.345995058
H -3.497650639 -1.116537802 1.340375049
H -3.269568028 -0.783727590 -1.989016266
H -2.713614004 3.710689689 0.188734753
H 5.289515841 0.536250039 0.409793970

