12

O -4.564981749 1.440227535 -0.598180559
C -3.095789910 -0.716565589 -0.130640471
C -0.316112725 -0.192335418 0.069317913
N 0.567101651 1.994141524 -0.711886986
O 3.025474202 2.116778854 -0.424702378
C 3.796521049 -0.300765843 0.659493158
C 1.586463349 -1.869881090 0.994939803
H -3.668218944 2.527974604 -1.740937820
H -3.738009648 -1.535840099 1.649423127
H -3.376773079 -2.163712375 -1.592847505
H 5.155467646 -1.149918378 -0.649726543
H 4.772832631 0.095454848 2.439165054

