13

C -3.726808996 -0.381365894 -0.181187092
O -1.491324482 -0.665369696 1.245587445
C 0.712985201 -0.474120720 -0.180185953
C 1.700710521 2.167657084 -0.623397178
N 3.897030007 2.523881702 0.266736902
C 4.771086203 0.167009630 1.464335036
N 2.861214842 -1.414785245 1.211831116
H -3.879575514 1.507106227 -1.013731882
H -5.295534751 -0.663470880 1.116885455
H -3.833789680 -1.793846240 -1.694109783
H 0.645335935 3.626021832 -1.611319899
H 0.515164040 -1.499580922 -1.982107729
H 2.931378200 -3.198702788 1.865414836

