13

C -3.578305057 -0.562470329 -0.382614001
O -1.630127871 -0.663942556 1.464827366
C 0.667272499 0.053746646 0.642737542
C 1.706007083 2.499934677 -0.298689563
N 3.943211455 1.818052630 -0.920211566
C 3.687382638 -0.869737321 -0.584006083
N 2.848272750 -1.012943866 2.009227265
H -3.722828042 1.325371134 -1.207567402
H -5.328821445 -1.023536915 0.588742265
H -3.225947518 -1.944380292 -1.878281244
H 0.891150885 4.376249642 -0.428072478
H 1.294087852 -1.215671002 -1.477141294
H 2.402168846 -2.839437260 2.432631080

