14

C -3.940944483 0.060888714 0.371103547
C -1.247536263 -0.839802794 0.183027950
O -0.394228674 -2.368152226 1.653983943
C 0.339205802 0.262466424 -1.924765918
C 3.134698142 -0.369085131 -1.697425156
O 3.603098944 -2.978812688 -1.901064746
H 2.783652054 -3.753044857 -0.472593821
H 3.870390840 0.381866048 0.090365853
H 4.172945687 0.543068246 -3.228263377
H 0.041499973 2.309748898 -1.985972257
H -0.406863931 -0.481556924 -3.708106112
H -5.010195687 -1.150114040 1.641719621
H -3.950310136 1.990507978 1.109262111
H -4.833057239 0.115070110 -1.487844230

