10

C -2.649047788 -1.245493336 -0.376836844
C -1.261655521 0.902883174 0.903330567
H -0.677324538 0.462556352 2.832919311
C 0.312486756 2.750733573 -0.557851782
H 2.033629997 3.045935420 -1.600124405
C -1.800807481 3.614524739 0.281894981
H -3.119634663 5.153211124 0.451095144
H -3.178617362 -0.732518865 -2.304507705
H -4.372442317 -1.737521044 0.651154005
H -1.475066223 -2.943267166 -0.465959465

