11

C -2.868440966 -0.054959717 0.274149070
N -0.209209444 -0.462114099 -0.198250714
C 1.903108730 1.194243132 0.356256196
C 4.130346819 -0.277060816 -0.549129203
N 3.122689273 -2.446282386 -1.451092175
N 0.599490442 -2.474915440 -1.209076519
H -3.897855326 -1.699349578 -0.400317390
H -3.189666779 0.193255733 2.294426564
H -3.507448246 1.630552813 -0.723612699
H 1.722055336 2.991210066 -0.646792120
H 2.027606268 1.582652017 2.381813755

