11

C -2.933878459 -0.008981264 0.158891026
N -0.255374678 -0.374266325 -0.229491421
C 1.726499575 1.316411035 0.004540332
C 4.026595658 -0.019746070 -0.644643388
N 3.098511852 -2.484132561 -0.990426740
N 0.675729288 -2.597078260 -0.822677850
H -3.883229394 -1.741553871 -0.404210302
H -3.334642335 0.382148203 2.142012631
H -3.610156788 1.552452322 -1.001002158
H 1.387537303 3.329729954 0.053104025
H 3.020907830 0.797869223 1.785561378

