8

C -1.009823947 1.610911189 -0.028557862
H 0.773415411 2.603735179 -0.138113128
C -2.158118540 -0.396897118 -1.013982460
H -1.721116728 -1.855660674 -2.358598413
C -4.380987129 0.293241521 0.620364565
H -4.845344314 -0.981204007 2.171634391
H -6.085350112 0.957745420 -0.328304520
O -2.904889058 2.438012415 1.548477737

