16

C 5.557948981 1.569932421 3.251432402
C 3.366458198 0.245427009 2.731099677
C 1.091199598 -0.155868277 1.982693261
C -0.000314394 -1.387924111 -0.262431539
C -2.799151342 -0.957777110 -0.591825429
C -3.779136003 1.121786384 -2.166086571
N -3.814504836 -1.481154694 -3.095728512
H 5.808805853 3.507326849 2.627818132
H 7.001088262 0.753616146 4.445661362
H 3.546371105 0.153775575 4.938297618
H 0.355824979 -3.421266700 -0.072540274
H 0.996796346 -0.819896400 -1.993579652
H -3.934292061 -1.484764732 1.035777049
H -2.467023358 2.361105948 -3.137142352
H -5.547994792 1.999654517 -1.620273969
H -5.573904467 -2.221113695 -2.990008238

