16

C 0.087036874 3.557281079 -1.416844574
C -0.644660660 1.066942866 -0.276614444
C 1.015300468 -1.169399281 -1.063823703
C 2.971836480 -1.698217745 0.808366859
C 4.557043709 -2.095335772 2.372699417
C -3.230297365 -1.345630434 2.464029446
N -2.488737823 0.968869595 1.229253521
H 2.065381383 3.978955738 -0.992152684
H -1.109151751 5.052627636 -0.671435320
H -0.094214979 3.495123849 -3.474679223
H 1.914770287 -0.734737139 -2.869361262
H -0.130545077 -2.858577257 -1.358623548
H 5.967799831 -2.456821464 3.759524501
H -5.236244594 -1.671672403 2.107754448
H -2.171682938 -3.040084298 1.926829782
H -3.015571829 -1.086563911 4.500178014

