19

C -4.483456451 0.751207160 0.763703806
C -1.786637917 -0.268719773 0.743054523
C -1.265624891 -1.718892199 -1.724479269
O 1.346887631 -1.527876358 -2.378338625
C 2.876224464 -1.019728701 -0.423801546
C 5.272594818 0.106398157 -0.834537450
C 0.295199844 1.668881505 1.017916586
H -5.865741676 -0.753937059 0.443673887
H -4.738872231 2.171922914 -0.713350542
H -4.922226933 1.634060674 2.574127026
H -1.615818486 -1.606299539 2.315815864
H -1.793761127 -3.711712541 -1.573837351
H -2.290521200 -0.891719164 -3.312511506
H 2.669308694 -2.175405793 1.268218540
H 6.830395745 -0.464818807 0.349628227
H 3.174654511 1.385049289 0.358948753
H 5.619607645 0.987740665 -2.642303034
H 0.075129029 3.255350541 -0.295269235
H 0.538079029 2.339985594 2.953866130

