14

C -4.161358132 -0.277271256 1.213090902
C -1.962999027 -0.160261361 -0.599845446
O 0.153600757 0.816093137 0.769066660
C 2.408912390 0.822488159 -0.372829377
O 2.221621313 1.160632747 -2.903873217
C 4.559526752 0.591558864 0.911877401
H -3.734015580 -1.516561453 2.803081575
H -4.597124951 1.598849653 1.946661135
H -5.831784696 -1.004132489 0.246930343
H -1.493259203 -2.037499778 -1.330141407
H -2.382195291 1.067326858 -2.203941489
H 4.502711475 0.269965726 2.923017333
H 6.367364147 0.785692451 -0.017684322
H 3.879686762 1.049558954 -3.628408065

