14

C -3.443100180 -0.018114858 1.615116132
N -1.426270282 -0.185059840 -0.577692394
C -0.275992101 -2.669701474 -0.607833186
C 2.220440328 -2.428879407 -0.424581852
C 2.873289909 0.250905986 -0.357109048
C 0.698001940 1.528981451 -0.517472284
O 0.081052942 3.964739102 -0.662908989
H -3.924456963 2.001575782 1.594700343
H -2.262575816 -0.326647097 3.298794589
H -2.472800894 0.105788418 -2.166538820
H -1.528212654 -4.271643909 -0.578852818
H 3.549317547 -3.970293631 -0.296078302
H 4.743565706 1.040115067 -0.169974988
H 1.566897956 4.990192653 -0.489511216

