15

C 1.349208460 2.112718683 0.977243198
C 2.232807565 -0.314778937 2.214678402
C 1.325703688 -2.220090332 0.347297514
O -0.883552315 -1.937904144 2.014599284
C -2.535677581 -0.114222984 0.846796519
C -0.709197150 1.268342336 -0.881539228
C 0.566330983 -1.007279318 -2.130678356
H 0.754772280 3.550181170 2.329883892
H 3.018983617 2.843632358 -0.011657248
H 2.219451321 -0.497311722 -3.252330646
H 2.010207787 -4.151413807 0.395897736
H -3.344430813 1.044984570 2.344381021
H -4.033169411 -1.118542858 -0.158648555
H -1.536209616 2.690567754 -2.112813641
H -0.701357092 -2.162966878 -3.275912311

