15

C 1.445142183 2.124108629 0.675901990
C 2.998740341 -0.363291136 0.458770210
C 0.937218175 -2.347534237 0.606370802
O -1.168432006 -1.900880309 2.174154265
C -2.693465933 -0.029744781 0.974283150
C -0.873015335 1.232184940 -0.841809569
C 0.553883810 -1.072724237 -1.902129229
H 1.052297923 2.594166041 2.646645360
H 2.439843106 3.703236080 -0.191571326
H 2.796185209 -0.413031090 -2.152285485
H 1.512372970 -4.311826063 0.670362069
H -3.412008648 1.262519466 2.413460848
H -4.292077820 -0.928826865 0.005253703
H -1.720488621 2.554814837 -2.168010652
H 0.233979766 -2.115371348 -3.640080488

