12

O -3.032347476 1.668941617 0.874742507
C -1.988619404 -0.340065476 -0.495773787
C 0.158204545 0.202286489 -2.214603305
C 0.559522243 -1.209586896 0.299802385
C 1.994654434 -0.035176893 2.212518124
O 4.018455758 -1.282619614 2.527563286
H -4.120519185 2.613279638 -0.225554819
H -3.330683774 -1.806094878 -1.017284170
H 0.418488864 -0.895440450 -3.922141992
H 0.746613369 2.161168086 -2.335192946
H 3.016432392 -2.635221947 0.995787175
H 1.617529388 1.603135401 3.403303360

