12

O 0.087222879 2.577685626 -2.653812865
C -0.343330847 0.842712443 -0.836897547
C -1.602826279 -1.350160977 -0.646761903
C -1.943426056 0.551635811 1.437574246
C 3.211425199 -0.156867262 0.390374275
O 5.093418149 0.512866851 -0.400147258
H 0.818799905 4.061299534 -1.906314197
H 0.397072485 -3.225031927 0.403679421
H -2.853756395 -2.480388541 -1.784783321
H -0.999757414 0.221336988 3.244095332
H -3.740425153 1.543929657 1.581687746
H 1.875655394 -3.180518294 1.069364815

