13

C -1.881578740 0.895429301 -0.527758498
C -1.882451416 -1.978367224 -0.830109179
O 0.684215538 -2.709173299 -1.253571953
C 2.301698873 -0.913029095 -0.431676394
N 4.638729691 -1.277309219 -0.320608308
C 0.813085846 1.421757730 0.215767701
N 1.862542112 3.328900251 1.173608306
H -2.273380118 1.830130153 -2.326885785
H -3.240051375 1.569727688 0.863812822
H 0.610984191 4.752593646 1.499376095
H -2.988057341 -2.636155396 -2.434918310
H -2.564452932 -2.918437620 0.878132751
H 5.471913681 0.336916493 0.313828329

