17

C 4.195799203 0.109510819 1.090137383
O 1.642377945 -0.504489771 1.574659155
C 0.428495304 -1.574279453 -0.412643677
C -2.241154051 -1.150040530 -0.713889794
C -3.742323572 0.366627183 1.162854026
C 0.192968306 2.717604708 -2.747294838
C -0.507723981 0.177314703 -2.763456324
H 4.993864655 0.802949940 2.852701966
H 4.315035876 1.582820221 -0.364695183
H 5.255175568 -1.550474667 0.453600165
H 1.289429847 -3.287245584 -1.155755440
H -3.270311994 -2.683931074 -1.600203094
H -4.410063608 -0.881087659 2.664268001
H -2.612155969 1.842326521 2.037465102
H -5.381002188 1.226891080 0.258544486
H 0.081823762 3.423537943 -0.787054207
H -0.460832713 -0.873655725 -4.525972114

