8

C -2.101006878 -0.665550770 4.388893441
C -2.856795774 -1.088889559 2.036635871
C -2.517527442 0.850681323 0.063970650
O -3.146361702 0.592121530 -2.103950580
H -1.616468174 2.627242824 0.725439932
H -3.740493882 -2.844979903 1.457403426
H -1.220386719 1.113525749 4.907867868
H -2.328953108 -2.055087252 5.873420975

