14

C 3.832754091 0.026475233 -1.141646631
O 1.523197661 1.254908802 -0.468601926
C 0.073917299 0.184149502 2.008044731
C -2.076390512 -0.949216783 0.738107938
C -4.474236874 0.345246387 0.762611658
O -6.484356430 -0.494840622 0.056799120
H 4.404097024 0.720015776 -2.990859635
H 3.572906922 -2.022987816 -1.207070423
H 5.269590456 0.512456384 0.248608060
H -0.259213430 1.904053291 3.081955603
H 1.445581583 -1.052373361 2.909990828
H -2.116063233 -2.984116809 0.492802609
H -0.272848919 0.330824526 -1.238412552
H -4.367670286 2.333720830 1.470767059

