15

O 3.953679820 1.646384221 -0.706140632
C 1.551092853 0.772192380 -0.198456354
C 1.039716089 -2.132965927 0.144286580
C -1.671173818 -1.373799901 -0.565819169
C -2.281805254 0.351131296 1.679053863
C 0.086952025 1.907197096 1.845921253
C -0.506682439 0.598001659 -2.353170817
H 4.274346993 3.004608432 0.458338653
H 1.383168974 -2.966710447 1.998316496
H 2.036169373 -3.173326658 -1.327330988
H -3.057755505 -2.748087162 -1.204803092
H -3.916912723 1.594142591 1.425648770
H -2.578131733 -0.619994575 3.484277217
H -1.593938500 2.289399950 -2.808451516
H 0.365325464 -0.192223943 -4.043095991

