14

C -3.016814608 -1.015088592 -1.819063766
C -2.643993999 0.969924157 -0.325559711
C -0.267052146 2.408946349 -0.158765737
C 2.037857390 1.532377478 0.323743892
C 2.844531452 -1.109724602 1.011362317
O 1.061646379 -2.600870921 2.294901963
H -4.829321005 -1.962373376 -1.900604257
H -1.532015274 -1.722096362 -3.044226087
H -4.220094789 1.684618860 0.783269596
H -0.514109101 -2.542167996 1.391978367
H -0.467218967 4.429726700 -0.470771180
H 3.583862307 2.882348613 0.251791720
H 4.469236111 -0.972238448 2.276636777
H 3.534538679 -2.063079149 -0.705255219

