13

C -2.292374416 -1.417518885 -1.334641166
C -0.138657502 0.644338953 2.411252816
N 0.012765213 -1.053892568 0.188212980
C 1.984326136 0.709147262 -0.907267981
C 1.662743315 2.341507050 1.526778371
O 2.720350726 4.286691137 2.140764845
H -3.690051820 -2.417174443 -0.202486800
H -1.860117215 -2.503930938 -3.033660326
H -3.022388109 0.440251782 -1.827054189
H -1.340534617 0.283102006 4.015836011
H 0.778390757 -2.781628611 0.560232402
H 1.331707518 1.525943377 -2.681279561
H 3.794294725 -0.242229554 -1.156248658

