27

C     2.28970   1.18690  -0.32113
C     2.05387  -0.27061   0.00098
O     2.90647  -1.12921  -0.26616
C     0.80601  -0.66265   0.68177
C     0.79850  -1.97476   1.41705
N     0.00397   0.33433   1.22633
C    -0.91436   0.88915   0.47538
C    -1.59648   2.04287   1.05713
N    -2.22041   2.96758   1.39000
C    -1.22128   0.29540  -1.13438
C    -2.69566  -0.15035  -1.17739
C    -0.19237  -0.69760  -1.42183
C    -0.46636  -2.17567  -1.55340
H     1.38885   1.65683  -0.73524
H     3.11538   1.26438  -1.03900
H     2.55657   1.74086   0.59524
H    -0.22835  -2.27703   1.66323
H     1.36964  -1.97254   2.40483
H     1.28065  -2.73521   0.80400
H    -1.07596   1.23731  -1.75180
H    -2.83834  -1.00681  -0.50920
H    -3.31736   0.68041  -0.81844
H    -3.11796  -0.45501  -2.17596
H     0.66234  -0.35143  -2.05280
H    -1.13878  -2.52211  -0.76064
H     0.49088  -2.72881  -1.45703
H    -0.91541  -2.52044  -2.52019
27

C     2.28972   1.18671  -0.32097
C     2.05702  -0.27002   0.00485
O     2.90629  -1.12957  -0.26614
C     0.81452  -0.66072   0.69573
C     0.80016  -1.97625   1.42205
N     0.00560   0.32942   1.21815
C    -0.91280   0.89673   0.49826
C    -1.59548   2.04775   1.06737
N    -2.22403   2.97278   1.39065
C    -1.22575   0.28758  -1.16145
C    -2.69733  -0.15110  -1.17969
C    -0.19990  -0.69879  -1.44084
C    -0.46593  -2.17777  -1.55490
H     1.38834   1.65579  -0.73525
H     3.11508   1.26430  -1.03928
H     2.55640   1.74163   0.59482
H    -0.22828  -2.27655   1.66367
H     1.36975  -1.97545   2.40643
H     1.28048  -2.73490   0.80416
H    -1.07596   1.23733  -1.75206
H    -2.83697  -1.00667  -0.50905
H    -3.31540   0.68096  -0.81714
H    -3.12324  -0.45536  -2.17437
H     0.66260  -0.35170  -2.05323
H    -1.13858  -2.52102  -0.76031
H     0.49153  -2.72791  -1.45541
H    -0.91451  -2.52471  -2.51950
27

C     2.28974   1.18653  -0.32081
C     2.06016  -0.26942   0.00871
O     2.90611  -1.12992  -0.26611
C     0.82302  -0.65879   0.70969
C     0.80182  -1.97773   1.42705
N     0.00722   0.32451   1.20997
C    -0.91124   0.90431   0.52114
C    -1.59448   2.05264   1.07762
N    -2.22765   2.97798   1.39130
C    -1.23021   0.27976  -1.18851
C    -2.69901  -0.15186  -1.18199
C    -0.20744  -0.69998  -1.45985
C    -0.46551  -2.17988  -1.55640
H     1.38783   1.65475  -0.73525
H     3.11479   1.26422  -1.03957
H     2.55622   1.74239   0.59440
H    -0.22821  -2.27608   1.66412
H     1.36987  -1.97836   2.40802
H     1.28032  -2.73459   0.80432
H    -1.07595   1.23735  -1.75232
H    -2.83560  -1.00653  -0.50890
H    -3.31344   0.68150  -0.81583
H    -3.12852  -0.45571  -2.17277
H     0.66286  -0.35198  -2.05366
H    -1.13838  -2.51993  -0.75999
H     0.49218  -2.72700  -1.45379
H    -0.91362  -2.52899  -2.51882
27

C     2.28976   1.18635  -0.32066
C     2.06330  -0.26883   0.01258
O     2.90593  -1.13028  -0.26609
C     0.83153  -0.65686   0.72364
C     0.80348  -1.97921   1.43206
N     0.00884   0.31960   1.20179
C    -0.90968   0.91189   0.54402
C    -1.59348   2.05753   1.08786
N    -2.23127   2.98318   1.39195
C    -1.23467   0.27193  -1.21558
C    -2.70068  -0.15261  -1.18429
C    -0.21497  -0.70117  -1.47886
C    -0.46509  -2.18198  -1.55789
H     1.38732   1.65371  -0.73526
H     3.11449   1.26415  -1.03985
H     2.55605   1.74315   0.59398
H    -0.22814  -2.27560   1.66456
H     1.36998  -1.98127   2.40962
H     1.28015  -2.73428   0.80448
H    -1.07594   1.23736  -1.75259
H    -2.83423  -1.00639  -0.50876
H    -3.31149   0.68204  -0.81453
H    -3.13380  -0.45605  -2.17118
H     0.66312  -0.35225  -2.05409
H    -1.13819  -2.51884  -0.75966
H     0.49283  -2.72609  -1.45216
H    -0.91273  -2.53327  -2.51814
27

C     2.28977   1.18617  -0.32050
C     2.06645  -0.26824   0.01644
O     2.90575  -1.13064  -0.26607
C     0.84004  -0.65494   0.73760
C     0.80514  -1.98070   1.43706
N     0.01046   0.31469   1.19361
C    -0.90812   0.91947   0.56690
C    -1.59248   2.06242   1.09811
N    -2.23490   2.98837   1.39260
C    -1.23913   0.26411  -1.24265
C    -2.70236  -0.15337  -1.18659
C    -0.22251  -0.70236  -1.49787
C    -0.46466  -2.18409  -1.55939
H     1.38681   1.65266  -0.73527
H     3.11419   1.26407  -1.04013
H     2.55587   1.74392   0.59356
H    -0.22807  -2.27513   1.66500
H     1.37010  -1.98418   2.41121
H     1.27998  -2.73397   0.80464
H    -1.07593   1.23738  -1.75285
H    -2.83286  -1.00625  -0.50861
H    -3.30953   0.68258  -0.81322
H    -3.13909  -0.45640  -2.16959
H     0.66337  -0.35252  -2.05453
H    -1.13799  -2.51775  -0.75933
H     0.49347  -2.72518  -1.45054
H    -0.91183  -2.53754  -2.51745
27

C     2.28979   1.18599  -0.32035
C     2.06959  -0.26764   0.02030
O     2.90557  -1.13099  -0.26604
C     0.84854  -0.65301   0.75156
C     0.80681  -1.98218   1.44206
N     0.01208   0.30978   1.18544
C    -0.90657   0.92704   0.58978
C    -1.59149   2.06731   1.10835
N    -2.23852   2.99357   1.39325
C    -1.24360   0.25629  -1.26972
C    -2.70403  -0.15412  -1.18889
C    -0.23004  -0.70354  -1.51688
C    -0.46424  -2.18619  -1.56089
H     1.38630   1.65162  -0.73527
H     3.11390   1.26399  -1.04041
H     2.55570   1.74468   0.59314
H    -0.22800  -2.27465   1.66544
H     1.37021  -1.98709   2.41281
H     1.27981  -2.73366   0.80480
H    -1.07593   1.23740  -1.75311
H    -2.83149  -1.00611  -0.50846
H    -3.30757   0.68312  -0.81192
H    -3.14437  -0.45674  -2.16800
H     0.66363  -0.35279  -2.05496
H    -1.13779  -2.51666  -0.75900
H     0.49412  -2.72427  -1.44892
H    -0.91094  -2.54182  -2.51677
27

C     2.28981   1.18581  -0.32019
C     2.07273  -0.26705   0.02417
O     2.90539  -1.13135  -0.26602
C     0.85705  -0.65108   0.76552
C     0.80847  -1.98366   1.44706
N     0.01370   0.30487   1.17726
C    -0.90501   0.93462   0.61266
C    -1.59049   2.07220   1.11860
N    -2.24214   2.99877   1.39390
C    -1.24806   0.24847  -1.29679
C    -2.70571  -0.15488  -1.19119
C    -0.23758  -0.70473  -1.53589
C    -0.46381  -2.18830  -1.56238
H     1.38579   1.65058  -0.73528
H     3.11360   1.26392  -1.04070
H     2.55552   1.74545   0.59273
H    -0.22793  -2.27418   1.66589
H     1.37033  -1.99000   2.41440
H     1.27965  -2.73335   0.80496
H    -1.07592   1.23742  -1.75337
H    -2.83012  -1.00597  -0.50831
H    -3.30562   0.68366  -0.81062
H    -3.14965  -0.45709  -2.16640
H     0.66389  -0.35307  -2.05539
H    -1.13759  -2.51557  -0.75867
H     0.49477  -2.72336  -1.44729
H    -0.91005  -2.54610  -2.51608
27

C     2.28983   1.18563  -0.32004
C     2.07588  -0.26646   0.02803
O     2.90521  -1.13171  -0.26600
C     0.86555  -0.64915   0.77948
C     0.81013  -1.98515   1.45206
N     0.01533   0.29996   1.16908
C    -0.90345   0.94220   0.63554
C    -1.58949   2.07708   1.12884
N    -2.24577   3.00397   1.39456
C    -1.25252   0.24064  -1.32386
C    -2.70738  -0.15563  -1.19349
C    -0.24511  -0.70592  -1.55490
C    -0.46339  -2.19040  -1.56388
H     1.38527   1.64954  -0.73529
H     3.11330   1.26384  -1.04098
H     2.55535   1.74621   0.59231
H    -0.22786  -2.27370   1.66633
H     1.37044  -1.99291   2.41600
H     1.27948  -2.73304   0.80512
H    -1.07591   1.23744  -1.75364
H    -2.82875  -1.00583  -0.50817
H    -3.30366   0.68420  -0.80931
H    -3.15493  -0.45743  -2.16481
H     0.66415  -0.35334  -2.05582
H    -1.13739  -2.51448  -0.75835
H     0.49542  -2.72245  -1.44567
H    -0.90916  -2.55038  -2.51540
27

C     2.28984   1.18545  -0.31988
C     2.07902  -0.26586   0.03190
O     2.90502  -1.13207  -0.26598
C     0.87406  -0.64722   0.79344
C     0.81179  -1.98663   1.45706
N     0.01695   0.29505   1.16090
C    -0.90189   0.94978   0.65842
C    -1.58849   2.08197   1.13909
N    -2.24939   3.00917   1.39521
C    -1.25698   0.23282  -1.35093
C    -2.70906  -0.15638  -1.19579
C    -0.25264  -0.70711  -1.57392
C    -0.46297  -2.19250  -1.56538
H     1.38476   1.64849  -0.73529
H     3.11300   1.26376  -1.04126
H     2.55517   1.74697   0.59189
H    -0.22779  -2.27323   1.66677
H     1.37056  -1.99582   2.41759
H     1.27931  -2.73273   0.80528
H    -1.07591   1.23745  -1.75390
H    -2.82738  -1.00569  -0.50802
H    -3.30170   0.68474  -0.80801
H    -3.16022  -0.45778  -2.16322
H     0.66441  -0.35361  -2.05626
H    -1.13719  -2.51339  -0.75802
H     0.49607  -2.72155  -1.44405
H    -0.90826  -2.55465  -2.51472
27

C     2.28986   1.18526  -0.31972
C     2.08216  -0.26527   0.03576
O     2.90484  -1.13242  -0.26595
C     0.88257  -0.64529   0.80739
C     0.81345  -1.98811   1.46206
N     0.01857   0.29014   1.15272
C    -0.90033   0.95736   0.68130
C    -1.58749   2.08686   1.14933
N    -2.25301   3.01436   1.39586
C    -1.26144   0.22500  -1.37800
C    -2.71074  -0.15714  -1.19809
C    -0.26018  -0.70830  -1.59293
C    -0.46254  -2.19461  -1.56687
H     1.38425   1.64745  -0.73530
H     3.11271   1.26369  -1.04154
H     2.55500   1.74774   0.59147
H    -0.22772  -2.27275   1.66721
H     1.37067  -1.99874   2.41919
H     1.27915  -2.73242   0.80544
H    -1.07590   1.23747  -1.75416
H    -2.82601  -1.00555  -0.50787
H    -3.29975   0.68528  -0.80670
H    -3.16550  -0.45812  -2.16162
H     0.66467  -0.35389  -2.05669
H    -1.13700  -2.51230  -0.75769
H     0.49672  -2.72064  -1.44242
H    -0.90737  -2.55893  -2.51403
27

C     2.28988   1.18508  -0.31957
C     2.08531  -0.26467   0.03963
O     2.90466  -1.13278  -0.26593
C     0.89107  -0.64336   0.82135
C     0.81511  -1.98960   1.46706
N     0.02019   0.28523   1.14454
C    -0.89878   0.96494   0.70418
C    -1.58650   2.09175   1.15958
N    -2.25664   3.01956   1.39651
C    -1.26591   0.21718  -1.40507
C    -2.71241  -0.15789  -1.20039
C    -0.26771  -0.70948  -1.61194
C    -0.46212  -2.19671  -1.56837
H     1.38374   1.64641  -0.73530
H     3.11241   1.26361  -1.04182
H     2.55483   1.74850   0.59105
H    -0.22766  -2.27228   1.66766
H     1.37079  -2.00165   2.42078
H     1.27898  -2.73211   0.80560
H    -1.07589   1.23749  -1.75442
H    -2.82464  -1.00541  -0.50772
H    -3.29779   0.68582  -0.80540
H    -3.17078  -0.45847  -2.16003
H     0.66493  -0.35416  -2.05712
H    -1.13680  -2.51121  -0.75736
H     0.49737  -2.71973  -1.44080
H    -0.90648  -2.56321  -2.51335
27

C     2.28990   1.18490  -0.31941
C     2.08845  -0.26408   0.04349
O     2.90448  -1.13314  -0.26591
C     0.89958  -0.64144   0.83531
C     0.81677  -1.99108   1.47206
N     0.02181   0.28032   1.13637
C    -0.89722   0.97252   0.72706
C    -1.58550   2.09664   1.16982
N    -2.26026   3.02476   1.39716
C    -1.27037   0.20935  -1.43214
C    -2.71409  -0.15865  -1.20269
C    -0.27525  -0.71067  -1.63095
C    -0.46170  -2.19882  -1.56987
H     1.38323   1.64537  -0.73531
H     3.11211   1.26353  -1.04211
H     2.55465   1.74927   0.59064
H    -0.22759  -2.27180   1.66810
H     1.37090  -2.00456   2.42238
H     1.27881  -2.73180   0.80576
H    -1.07588   1.23751  -1.75469
H    -2.82327  -1.00527  -0.50758
H    -3.29583   0.68636  -0.80410
H    -3.17606  -0.45881  -2.15844
H     0.66519  -0.35443  -2.05755
H    -1.13660  -2.51012  -0.75704
H     0.49802  -2.71882  -1.43918
H    -0.90559  -2.56749  -2.51267
27

C     2.28991   1.18472  -0.31926
C     2.09159  -0.26349   0.04735
O     2.90430  -1.13349  -0.26588
C     0.90808  -0.63951   0.84927
C     0.81844  -1.99256   1.47706
N     0.02344   0.27541   1.12819
C    -0.89566   0.98010   0.74994
C    -1.58450   2.10153   1.18007
N    -2.26388   3.02996   1.39781
C    -1.27483   0.20153  -1.45921
C    -2.71576  -0.15940  -1.20499
C    -0.28278  -0.71186  -1.64996
C    -0.46127  -2.20092  -1.57136
H     1.38272   1.64432  -0.73532
H     3.11181   1.26346  -1.04239
H     2.55448   1.75003   0.59022
H    -0.22752  -2.27133   1.66854
H     1.37102  -2.00747   2.42397
H     1.27865  -2.73149   0.80592
H    -1.07588   1.23753  -1.75495
H    -2.82190  -1.00513  -0.50743
H    -3.29388   0.68690  -0.80279
H    -3.18134  -0.45916  -2.15685
H     0.66545  -0.35470  -2.05798
H    -1.13640  -2.50904  -0.75671
H     0.49866  -2.71791  -1.43755
H    -0.90469  -2.57176  -2.51198
27

C     2.28993   1.18454  -0.31910
C     2.09474  -0.26289   0.05122
O     2.90412  -1.13385  -0.26586
C     0.91659  -0.63758   0.86323
C     0.82010  -1.99405   1.48206
N     0.02506   0.27050   1.12001
C    -0.89410   0.98768   0.77282
C    -1.58350   2.10641   1.19031
N    -2.26751   3.03516   1.39846
C    -1.27929   0.19371  -1.48628
C    -2.71744  -0.16016  -1.20729
C    -0.29032  -0.71305  -1.66897
C    -0.46085  -2.20303  -1.57286
H     1.38221   1.64328  -0.73532
H     3.11152   1.26338  -1.04267
H     2.55430   1.75079   0.58980
H    -0.22745  -2.27085   1.66898
H     1.37113  -2.01038   2.42557
H     1.27848  -2.73118   0.80608
H    -1.07587   1.23754  -1.75521
H    -2.82053  -1.00499  -0.50728
H    -3.29192   0.68744  -0.80149
H    -3.18663  -0.45950  -2.15525
H     0.66571  -0.35498  -2.05842
H    -1.13620  -2.50795  -0.75638
H     0.49931  -2.71700  -1.43593
H    -0.90380  -2.57604  -2.51130
27

C     2.28995   1.18436  -0.31894
C     2.09788  -0.26230   0.05508
O     2.90394  -1.13421  -0.26584
C     0.92510  -0.63565   0.87719
C     0.82176  -1.99553   1.48706
N     0.02668   0.26559   1.11183
C    -0.89254   0.99526   0.79569
C    -1.58250   2.11130   1.20056
N    -2.27113   3.04035   1.39911
C    -1.28376   0.18589  -1.51335
C    -2.71911  -0.16091  -1.20959
C    -0.29785  -0.71424  -1.68798
C    -0.46043  -2.20513  -1.57436
H     1.38170   1.64224  -0.73533
H     3.11122   1.26330  -1.04295
H     2.55413   1.75156   0.58938
H    -0.22738  -2.27038   1.66943
H     1.37125  -2.01329   2.42716
H     1.27831  -2.73087   0.80624
H    -1.07586   1.23756  -1.75547
H    -2.81916  -1.00485  -0.50713
H    -3.28996   0.68798  -0.80018
H    -3.19191  -0.45985  -2.15366
H     0.66597  -0.35525  -2.05885
H    -1.13601  -2.50686  -0.75605
H     0.49996  -2.71609  -1.43431
H    -0.90291  -2.58032  -2.51062
27

C     2.28997   1.18418  -0.31879
C     2.10102  -0.26170   0.05895
O     2.90376  -1.13456  -0.26582
C     0.93360  -0.63372   0.89115
C     0.82342  -1.99701   1.49206
N     0.02830   0.26068   1.10365
C    -0.89099   1.00284   0.81857
C    -1.58151   2.11619   1.21080
N    -2.27475   3.04555   1.39976
C    -1.28822   0.17806  -1.54042
C    -2.72079  -0.16166  -1.21189
C    -0.30539  -0.71542  -1.70699
C    -0.46000  -2.20723  -1.57585
H     1.38119   1.64120  -0.73533
H     3.11092   1.26323  -1.04323
H     2.55395   1.75232   0.58896
H    -0.22731  -2.26990   1.66987
H     1.37136  -2.01620   2.42876
H     1.27815  -2.73056   0.80640
H    -1.07586   1.23758  -1.75574
H    -2.81779  -1.00472  -0.50699
H    -3.28801   0.68852  -0.79888
H    -3.19719  -0.46019  -2.15207
H     0.66623  -0.35552  -2.05928
H    -1.13581  -2.50577  -0.75573
H     0.50061  -2.71518  -1.43268
H    -0.90201  -2.58460  -2.50993
27

C     2.28998   1.18400  -0.31863
C     2.10417  -0.26111   0.06281
O     2.90357  -1.13492  -0.26579
C     0.94211  -0.63179   0.90510
C     0.82508  -1.99850   1.49706
N     0.02992   0.25577   1.09547
C    -0.88943   1.01042   0.84145
C    -1.58051   2.12108   1.22105
N    -2.27837   3.05075   1.40041
C    -1.29268   0.17024  -1.56749
C    -2.72246  -0.16242  -1.21419
C    -0.31292  -0.71661  -1.72600
C    -0.45958  -2.20934  -1.57735
H     1.38067   1.64016  -0.73534
H     3.11063   1.26315  -1.04352
H     2.55378   1.75308   0.58854
H    -0.22724  -2.26943   1.67031
H     1.37148  -2.01911   2.43035
H     1.27798  -2.73025   0.80656
H    -1.07585   1.23760  -1.75600
H    -2.81642  -1.00458  -0.50684
H    -3.28605   0.68906  -0.79758
H    -3.20247  -0.46054  -2.15047
H     0.66649  -0.35580  -2.05971
H    -1.13561  -2.50468  -0.75540
H     0.50126  -2.71428  -1.43106
H    -0.90112  -2.58887  -2.50925
27

C     2.29000   1.18381  -0.31848
C     2.10731  -0.26052   0.06667
O     2.90339  -1.13528  -0.26577
C     0.95061  -0.62987   0.91906
C     0.82674  -1.99998   1.50206
N     0.03155   0.25086   1.08730
C    -0.88787   1.01800   0.86433
C    -1.57951   2.12597   1.23129
N    -2.28200   3.05595   1.40106
C    -1.29714   0.16242  -1.59456
C    -2.72414  -0.16317  -1.21649
C    -0.32046  -0.71780  -1.74501
C    -0.45916  -2.21144  -1.57885
H     1.38016   1.63911  -0.73535
H     3.11033   1.26308  -1.04380
H     2.55360   1.75385   0.58813
H    -0.22717  -2.26895   1.67076
H     1.37159  -2.02202   2.43195
H     1.27781  -2.72994   0.80672
H    -1.07584   1.23762  -1.75626
H    -2.81505  -1.00444  -0.50669
H    -3.28409   0.68960  -0.79627
H    -3.20776  -0.46088  -2.14888
H     0.66675  -0.35607  -2.06015
H    -1.13541  -2.50359  -0.75507
H     0.50191  -2.71337  -1.42944
H    -0.90023  -2.59315  -2.50857
27

C     2.29002   1.18363  -0.31832
C     2.11045  -0.25992   0.07054
O     2.90321  -1.13564  -0.26575
C     0.95912  -0.62794   0.93302
C     0.82840  -2.00146   1.50706
N     0.03317   0.24595   1.07912
C    -0.88631   1.02558   0.88721
C    -1.57851   2.13086   1.24154
N    -2.28562   3.06115   1.40172
C    -1.30161   0.15460  -1.62163
C    -2.72581  -0.16393  -1.21879
C    -0.32799  -0.71899  -1.76402
C    -0.45873  -2.21355  -1.58034
H     1.37965   1.63807  -0.73535
H     3.11003   1.26300  -1.04408
H     2.55343   1.75461   0.58771
H    -0.22710  -2.26848   1.67120
H     1.37171  -2.02493   2.43354
H     1.27764  -2.72963   0.80689
H    -1.07583   1.23763  -1.75652
H    -2.81368  -1.00430  -0.50654
H    -3.28214   0.69014  -0.79497
H    -3.21304  -0.46123  -2.14729
H     0.66701  -0.35634  -2.06058
H    -1.13521  -2.50250  -0.75474
H     0.50256  -2.71246  -1.42781
H    -0.89934  -2.59743  -2.50788
27

C     2.29004   1.18345  -0.31817
C     2.11360  -0.25933   0.07440
O     2.90303  -1.13599  -0.26572
C     0.96763  -0.62601   0.94698
C     0.83007  -2.00295   1.51206
N     0.03479   0.24104   1.07094
C    -0.88475   1.03316   0.91009
C    -1.57751   2.13574   1.25178
N    -2.28924   3.06634   1.40237
C    -1.30607   0.14677  -1.64870
C    -2.72749  -0.16468  -1.22109
C    -0.33553  -0.72018  -1.78303
C    -0.45831  -2.21565  -1.58184
H     1.37914   1.63703  -0.73536
H     3.10973   1.26292  -1.04436
H     2.55325   1.75538   0.58729
H    -0.22704  -2.26800   1.67164
H     1.37182  -2.02784   2.43514
H     1.27748  -2.72932   0.80705
H    -1.07583   1.23765  -1.75679
H    -2.81231  -1.00416  -0.50640
H    -3.28018   0.69068  -0.79366
H    -3.21832  -0.46157  -2.14570
H     0.66727  -0.35662  -2.06101
H    -1.13501  -2.50141  -0.75442
H     0.50321  -2.71155  -1.42619
H    -0.89844  -2.60170  -2.50720
27

C     2.29005   1.18327  -0.31801
C     2.11674  -0.25874   0.07827
O     2.90285  -1.13635  -0.26570
C     0.97613  -0.62408   0.96094
C     0.83173  -2.00443   1.51706
N     0.03641   0.23613   1.06276
C    -0.88320   1.04074   0.93297
C    -1.57652   2.14063   1.26203
N    -2.29287   3.07154   1.40302
C    -1.31053   0.13895  -1.67577
C    -2.72916  -0.16544  -1.22339
C    -0.34306  -0.72136  -1.80204
C    -0.45789  -2.21776  -1.58334
H     1.37863   1.63599  -0.73536
H     3.10944   1.26285  -1.04464
H     2.55308   1.75614   0.58687
H    -0.22697  -2.26753   1.67208
H     1.37194  -2.03076   2.43673
H     1.27731  -2.72901   0.80721
H    -1.07582   1.23767  -1.75705
H    -2.81094  -1.00402  -0.50625
H    -3.27822   0.69122  -0.79236
H    -3.22360  -0.46192  -2.14410
H     0.66752  -0.35689  -2.06144
H    -1.13482  -2.50032  -0.75409
H     0.50385  -2.71064  -1.42457
H    -0.89755  -2.60598  -2.50652
27

C     2.29004   1.18345  -0.31817
C     2.11360  -0.25933   0.07440
O     2.90303  -1.13599  -0.26572
C     0.96763  -0.62601   0.94698
C     0.83007  -2.00295   1.51206
N     0.03479   0.24104   1.07094
C    -0.88475   1.03316   0.91009
C    -1.57751   2.13574   1.25178
N    -2.28924   3.06634   1.40237
C    -1.30607   0.14677  -1.64870
C    -2.72749  -0.16468  -1.22109
C    -0.33553  -0.72018  -1.78303
C    -0.45831  -2.21565  -1.58184
H     1.37914   1.63703  -0.73536
H     3.10973   1.26292  -1.04436
H     2.55325   1.75538   0.58729
H    -0.22704  -2.26800   1.67164
H     1.37182  -2.02784   2.43514
H     1.27748  -2.72932   0.80705
H    -1.07583   1.23765  -1.75679
H    -2.81231  -1.00416  -0.50640
H    -3.28018   0.69068  -0.79366
H    -3.21832  -0.46157  -2.14570
H     0.66727  -0.35662  -2.06101
H    -1.13501  -2.50141  -0.75442
H     0.50321  -2.71155  -1.42619
H    -0.89844  -2.60170  -2.50720
27

C     2.29002   1.18363  -0.31832
C     2.11045  -0.25992   0.07054
O     2.90321  -1.13564  -0.26575
C     0.95912  -0.62794   0.93302
C     0.82840  -2.00146   1.50706
N     0.03317   0.24595   1.07912
C    -0.88631   1.02558   0.88721
C    -1.57851   2.13086   1.24154
N    -2.28562   3.06115   1.40172
C    -1.30161   0.15460  -1.62163
C    -2.72581  -0.16393  -1.21879
C    -0.32799  -0.71899  -1.76402
C    -0.45873  -2.21355  -1.58034
H     1.37965   1.63807  -0.73535
H     3.11003   1.26300  -1.04408
H     2.55343   1.75461   0.58771
H    -0.22710  -2.26848   1.67120
H     1.37171  -2.02493   2.43354
H     1.27764  -2.72963   0.80689
H    -1.07583   1.23763  -1.75652
H    -2.81368  -1.00430  -0.50654
H    -3.28214   0.69014  -0.79497
H    -3.21304  -0.46123  -2.14729
H     0.66701  -0.35634  -2.06058
H    -1.13521  -2.50250  -0.75474
H     0.50256  -2.71246  -1.42781
H    -0.89934  -2.59743  -2.50788
27

C     2.29000   1.18381  -0.31848
C     2.10731  -0.26052   0.06667
O     2.90339  -1.13528  -0.26577
C     0.95061  -0.62987   0.91906
C     0.82674  -1.99998   1.50206
N     0.03155   0.25086   1.08730
C    -0.88787   1.01800   0.86433
C    -1.57951   2.12597   1.23129
N    -2.28200   3.05595   1.40106
C    -1.29714   0.16242  -1.59456
C    -2.72414  -0.16317  -1.21649
C    -0.32046  -0.71780  -1.74501
C    -0.45916  -2.21144  -1.57885
H     1.38016   1.63911  -0.73535
H     3.11033   1.26308  -1.04380
H     2.55360   1.75385   0.58813
H    -0.22717  -2.26895   1.67076
H     1.37159  -2.02202   2.43195
H     1.27781  -2.72994   0.80672
H    -1.07584   1.23762  -1.75626
H    -2.81505  -1.00444  -0.50669
H    -3.28409   0.68960  -0.79627
H    -3.20776  -0.46088  -2.14888
H     0.66675  -0.35607  -2.06015
H    -1.13541  -2.50359  -0.75507
H     0.50191  -2.71337  -1.42944
H    -0.90023  -2.59315  -2.50857
27

C     2.28998   1.18400  -0.31863
C     2.10417  -0.26111   0.06281
O     2.90357  -1.13492  -0.26579
C     0.94211  -0.63179   0.90510
C     0.82508  -1.99850   1.49706
N     0.02992   0.25577   1.09547
C    -0.88943   1.01042   0.84145
C    -1.58051   2.12108   1.22105
N    -2.27837   3.05075   1.40041
C    -1.29268   0.17024  -1.56749
C    -2.72246  -0.16242  -1.21419
C    -0.31292  -0.71661  -1.72600
C    -0.45958  -2.20934  -1.57735
H     1.38067   1.64016  -0.73534
H     3.11063   1.26315  -1.04352
H     2.55378   1.75308   0.58854
H    -0.22724  -2.26943   1.67031
H     1.37148  -2.01911   2.43035
H     1.27798  -2.73025   0.80656
H    -1.07585   1.23760  -1.75600
H    -2.81642  -1.00458  -0.50684
H    -3.28605   0.68906  -0.79758
H    -3.20247  -0.46054  -2.15047
H     0.66649  -0.35580  -2.05971
H    -1.13561  -2.50468  -0.75540
H     0.50126  -2.71428  -1.43106
H    -0.90112  -2.58887  -2.50925
27

C     2.28997   1.18418  -0.31879
C     2.10102  -0.26170   0.05895
O     2.90376  -1.13456  -0.26582
C     0.93360  -0.63372   0.89115
C     0.82342  -1.99701   1.49206
N     0.02830   0.26068   1.10365
C    -0.89099   1.00284   0.81857
C    -1.58151   2.11619   1.21080
N    -2.27475   3.04555   1.39976
C    -1.28822   0.17806  -1.54042
C    -2.72079  -0.16166  -1.21189
C    -0.30539  -0.71542  -1.70699
C    -0.46000  -2.20723  -1.57585
H     1.38119   1.64120  -0.73533
H     3.11092   1.26323  -1.04323
H     2.55395   1.75232   0.58896
H    -0.22731  -2.26990   1.66987
H     1.37136  -2.01620   2.42876
H     1.27815  -2.73056   0.80640
H    -1.07586   1.23758  -1.75574
H    -2.81779  -1.00472  -0.50699
H    -3.28801   0.68852  -0.79888
H    -3.19719  -0.46019  -2.15207
H     0.66623  -0.35552  -2.05928
H    -1.13581  -2.50577  -0.75573
H     0.50061  -2.71518  -1.43268
H    -0.90201  -2.58460  -2.50993
27

C     2.28995   1.18436  -0.31894
C     2.09788  -0.26230   0.05508
O     2.90394  -1.13421  -0.26584
C     0.92510  -0.63565   0.87719
C     0.82176  -1.99553   1.48706
N     0.02668   0.26559   1.11183
C    -0.89254   0.99526   0.79569
C    -1.58250   2.11130   1.20056
N    -2.27113   3.04035   1.39911
C    -1.28376   0.18589  -1.51335
C    -2.71911  -0.16091  -1.20959
C    -0.29785  -0.71424  -1.68798
C    -0.46043  -2.20513  -1.57436
H     1.38170   1.64224  -0.73533
H     3.11122   1.26330  -1.04295
H     2.55413   1.75156   0.58938
H    -0.22738  -2.27038   1.66943
H     1.37125  -2.01329   2.42716
H     1.27831  -2.73087   0.80624
H    -1.07586   1.23756  -1.75547
H    -2.81916  -1.00485  -0.50713
H    -3.28996   0.68798  -0.80018
H    -3.19191  -0.45985  -2.15366
H     0.66597  -0.35525  -2.05885
H    -1.13601  -2.50686  -0.75605
H     0.49996  -2.71609  -1.43431
H    -0.90291  -2.58032  -2.51062
27

C     2.28993   1.18454  -0.31910
C     2.09474  -0.26289   0.05122
O     2.90412  -1.13385  -0.26586
C     0.91659  -0.63758   0.86323
C     0.82010  -1.99405   1.48206
N     0.02506   0.27050   1.12001
C    -0.89410   0.98768   0.77282
C    -1.58350   2.10641   1.19031
N    -2.26751   3.03516   1.39846
C    -1.27929   0.19371  -1.48628
C    -2.71744  -0.16016  -1.20729
C    -0.29032  -0.71305  -1.66897
C    -0.46085  -2.20303  -1.57286
H     1.38221   1.64328  -0.73532
H     3.11152   1.26338  -1.04267
H     2.55430   1.75079   0.58980
H    -0.22745  -2.27085   1.66898
H     1.37113  -2.01038   2.42557
H     1.27848  -2.73118   0.80608
H    -1.07587   1.23754  -1.75521
H    -2.82053  -1.00499  -0.50728
H    -3.29192   0.68744  -0.80149
H    -3.18663  -0.45950  -2.15525
H     0.66571  -0.35498  -2.05842
H    -1.13620  -2.50795  -0.75638
H     0.49931  -2.71700  -1.43593
H    -0.90380  -2.57604  -2.51130
27

C     2.28991   1.18472  -0.31926
C     2.09159  -0.26349   0.04735
O     2.90430  -1.13349  -0.26588
C     0.90808  -0.63951   0.84927
C     0.81844  -1.99256   1.47706
N     0.02344   0.27541   1.12819
C    -0.89566   0.98010   0.74994
C    -1.58450   2.10153   1.18007
N    -2.26388   3.02996   1.39781
C    -1.27483   0.20153  -1.45921
C    -2.71576  -0.15940  -1.20499
C    -0.28278  -0.71186  -1.64996
C    -0.46127  -2.20092  -1.57136
H     1.38272   1.64432  -0.73532
H     3.11181   1.26346  -1.04239
H     2.55448   1.75003   0.59022
H    -0.22752  -2.27133   1.66854
H     1.37102  -2.00747   2.42397
H     1.27865  -2.73149   0.80592
H    -1.07588   1.23753  -1.75495
H    -2.82190  -1.00513  -0.50743
H    -3.29388   0.68690  -0.80279
H    -3.18134  -0.45916  -2.15685
H     0.66545  -0.35470  -2.05798
H    -1.13640  -2.50904  -0.75671
H     0.49866  -2.71791  -1.43755
H    -0.90469  -2.57176  -2.51198
27

C     2.28990   1.18490  -0.31941
C     2.08845  -0.26408   0.04349
O     2.90448  -1.13314  -0.26591
C     0.89958  -0.64144   0.83531
C     0.81677  -1.99108   1.47206
N     0.02181   0.28032   1.13637
C    -0.89722   0.97252   0.72706
C    -1.58550   2.09664   1.16982
N    -2.26026   3.02476   1.39716
C    -1.27037   0.20935  -1.43214
C    -2.71409  -0.15865  -1.20269
C    -0.27525  -0.71067  -1.63095
C    -0.46170  -2.19882  -1.56987
H     1.38323   1.64537  -0.73531
H     3.11211   1.26353  -1.04211
H     2.55465   1.74927   0.59064
H    -0.22759  -2.27180   1.66810
H     1.37090  -2.00456   2.42238
H     1.27881  -2.73180   0.80576
H    -1.07588   1.23751  -1.75469
H    -2.82327  -1.00527  -0.50758
H    -3.29583   0.68636  -0.80410
H    -3.17606  -0.45881  -2.15844
H     0.66519  -0.35443  -2.05755
H    -1.13660  -2.51012  -0.75704
H     0.49802  -2.71882  -1.43918
H    -0.90559  -2.56749  -2.51267
27

C     2.28988   1.18508  -0.31957
C     2.08531  -0.26467   0.03963
O     2.90466  -1.13278  -0.26593
C     0.89107  -0.64336   0.82135
C     0.81511  -1.98960   1.46706
N     0.02019   0.28523   1.14454
C    -0.89878   0.96494   0.70418
C    -1.58650   2.09175   1.15958
N    -2.25664   3.01956   1.39651
C    -1.26591   0.21718  -1.40507
C    -2.71241  -0.15789  -1.20039
C    -0.26771  -0.70948  -1.61194
C    -0.46212  -2.19671  -1.56837
H     1.38374   1.64641  -0.73530
H     3.11241   1.26361  -1.04182
H     2.55483   1.74850   0.59105
H    -0.22766  -2.27228   1.66766
H     1.37079  -2.00165   2.42078
H     1.27898  -2.73211   0.80560
H    -1.07589   1.23749  -1.75442
H    -2.82464  -1.00541  -0.50772
H    -3.29779   0.68582  -0.80540
H    -3.17078  -0.45847  -2.16003
H     0.66493  -0.35416  -2.05712
H    -1.13680  -2.51121  -0.75736
H     0.49737  -2.71973  -1.44080
H    -0.90648  -2.56321  -2.51335
27

C     2.28986   1.18526  -0.31972
C     2.08216  -0.26527   0.03576
O     2.90484  -1.13242  -0.26595
C     0.88257  -0.64529   0.80739
C     0.81345  -1.98811   1.46206
N     0.01857   0.29014   1.15272
C    -0.90033   0.95736   0.68130
C    -1.58749   2.08686   1.14933
N    -2.25301   3.01436   1.39586
C    -1.26144   0.22500  -1.37800
C    -2.71074  -0.15714  -1.19809
C    -0.26018  -0.70830  -1.59293
C    -0.46254  -2.19461  -1.56687
H     1.38425   1.64745  -0.73530
H     3.11271   1.26369  -1.04154
H     2.55500   1.74774   0.59147
H    -0.22772  -2.27275   1.66721
H     1.37067  -1.99874   2.41919
H     1.27915  -2.73242   0.80544
H    -1.07590   1.23747  -1.75416
H    -2.82601  -1.00555  -0.50787
H    -3.29975   0.68528  -0.80670
H    -3.16550  -0.45812  -2.16162
H     0.66467  -0.35389  -2.05669
H    -1.13700  -2.51230  -0.75769
H     0.49672  -2.72064  -1.44242
H    -0.90737  -2.55893  -2.51403
27

C     2.28984   1.18545  -0.31988
C     2.07902  -0.26586   0.03190
O     2.90502  -1.13207  -0.26598
C     0.87406  -0.64722   0.79344
C     0.81179  -1.98663   1.45706
N     0.01695   0.29505   1.16090
C    -0.90189   0.94978   0.65842
C    -1.58849   2.08197   1.13909
N    -2.24939   3.00917   1.39521
C    -1.25698   0.23282  -1.35093
C    -2.70906  -0.15638  -1.19579
C    -0.25264  -0.70711  -1.57392
C    -0.46297  -2.19250  -1.56538
H     1.38476   1.64849  -0.73529
H     3.11300   1.26376  -1.04126
H     2.55517   1.74697   0.59189
H    -0.22779  -2.27323   1.66677
H     1.37056  -1.99582   2.41759
H     1.27931  -2.73273   0.80528
H    -1.07591   1.23745  -1.75390
H    -2.82738  -1.00569  -0.50802
H    -3.30170   0.68474  -0.80801
H    -3.16022  -0.45778  -2.16322
H     0.66441  -0.35361  -2.05626
H    -1.13719  -2.51339  -0.75802
H     0.49607  -2.72155  -1.44405
H    -0.90826  -2.55465  -2.51472
27

C     2.28983   1.18563  -0.32004
C     2.07588  -0.26646   0.02803
O     2.90521  -1.13171  -0.26600
C     0.86555  -0.64915   0.77948
C     0.81013  -1.98515   1.45206
N     0.01533   0.29996   1.16908
C    -0.90345   0.94220   0.63554
C    -1.58949   2.07708   1.12884
N    -2.24577   3.00397   1.39456
C    -1.25252   0.24064  -1.32386
C    -2.70738  -0.15563  -1.19349
C    -0.24511  -0.70592  -1.55490
C    -0.46339  -2.19040  -1.56388
H     1.38527   1.64954  -0.73529
H     3.11330   1.26384  -1.04098
H     2.55535   1.74621   0.59231
H    -0.22786  -2.27370   1.66633
H     1.37044  -1.99291   2.41600
H     1.27948  -2.73304   0.80512
H    -1.07591   1.23744  -1.75364
H    -2.82875  -1.00583  -0.50817
H    -3.30366   0.68420  -0.80931
H    -3.15493  -0.45743  -2.16481
H     0.66415  -0.35334  -2.05582
H    -1.13739  -2.51448  -0.75835
H     0.49542  -2.72245  -1.44567
H    -0.90916  -2.55038  -2.51540
27

C     2.28981   1.18581  -0.32019
C     2.07273  -0.26705   0.02417
O     2.90539  -1.13135  -0.26602
C     0.85705  -0.65108   0.76552
C     0.80847  -1.98366   1.44706
N     0.01370   0.30487   1.17726
C    -0.90501   0.93462   0.61266
C    -1.59049   2.07220   1.11860
N    -2.24214   2.99877   1.39390
C    -1.24806   0.24847  -1.29679
C    -2.70571  -0.15488  -1.19119
C    -0.23758  -0.70473  -1.53589
C    -0.46381  -2.18830  -1.56238
H     1.38579   1.65058  -0.73528
H     3.11360   1.26392  -1.04070
H     2.55552   1.74545   0.59273
H    -0.22793  -2.27418   1.66589
H     1.37033  -1.99000   2.41440
H     1.27965  -2.73335   0.80496
H    -1.07592   1.23742  -1.75337
H    -2.83012  -1.00597  -0.50831
H    -3.30562   0.68366  -0.81062
H    -3.14965  -0.45709  -2.16640
H     0.66389  -0.35307  -2.05539
H    -1.13759  -2.51557  -0.75867
H     0.49477  -2.72336  -1.44729
H    -0.91005  -2.54610  -2.51608
27

C     2.28979   1.18599  -0.32035
C     2.06959  -0.26764   0.02030
O     2.90557  -1.13099  -0.26604
C     0.84854  -0.65301   0.75156
C     0.80681  -1.98218   1.44206
N     0.01208   0.30978   1.18544
C    -0.90657   0.92704   0.58978
C    -1.59149   2.06731   1.10835
N    -2.23852   2.99357   1.39325
C    -1.24360   0.25629  -1.26972
C    -2.70403  -0.15412  -1.18889
C    -0.23004  -0.70354  -1.51688
C    -0.46424  -2.18619  -1.56089
H     1.38630   1.65162  -0.73527
H     3.11390   1.26399  -1.04041
H     2.55570   1.74468   0.59314
H    -0.22800  -2.27465   1.66544
H     1.37021  -1.98709   2.41281
H     1.27981  -2.73366   0.80480
H    -1.07593   1.23740  -1.75311
H    -2.83149  -1.00611  -0.50846
H    -3.30757   0.68312  -0.81192
H    -3.14437  -0.45674  -2.16800
H     0.66363  -0.35279  -2.05496
H    -1.13779  -2.51666  -0.75900
H     0.49412  -2.72427  -1.44892
H    -0.91094  -2.54182  -2.51677
27

C     2.28977   1.18617  -0.32050
C     2.06645  -0.26824   0.01644
O     2.90575  -1.13064  -0.26607
C     0.84004  -0.65494   0.73760
C     0.80514  -1.98070   1.43706
N     0.01046   0.31469   1.19361
C    -0.90812   0.91947   0.56690
C    -1.59248   2.06242   1.09811
N    -2.23490   2.98837   1.39260
C    -1.23913   0.26411  -1.24265
C    -2.70236  -0.15337  -1.18659
C    -0.22251  -0.70236  -1.49787
C    -0.46466  -2.18409  -1.55939
H     1.38681   1.65266  -0.73527
H     3.11419   1.26407  -1.04013
H     2.55587   1.74392   0.59356
H    -0.22807  -2.27513   1.66500
H     1.37010  -1.98418   2.41121
H     1.27998  -2.73397   0.80464
H    -1.07593   1.23738  -1.75285
H    -2.83286  -1.00625  -0.50861
H    -3.30953   0.68258  -0.81322
H    -3.13909  -0.45640  -2.16959
H     0.66337  -0.35252  -2.05453
H    -1.13799  -2.51775  -0.75933
H     0.49347  -2.72518  -1.45054
H    -0.91183  -2.53754  -2.51745
27

C     2.28976   1.18635  -0.32066
C     2.06330  -0.26883   0.01258
O     2.90593  -1.13028  -0.26609
C     0.83153  -0.65686   0.72364
C     0.80348  -1.97921   1.43206
N     0.00884   0.31960   1.20179
C    -0.90968   0.91189   0.54402
C    -1.59348   2.05753   1.08786
N    -2.23127   2.98318   1.39195
C    -1.23467   0.27193  -1.21558
C    -2.70068  -0.15261  -1.18429
C    -0.21497  -0.70117  -1.47886
C    -0.46509  -2.18198  -1.55789
H     1.38732   1.65371  -0.73526
H     3.11449   1.26415  -1.03985
H     2.55605   1.74315   0.59398
H    -0.22814  -2.27560   1.66456
H     1.36998  -1.98127   2.40962
H     1.28015  -2.73428   0.80448
H    -1.07594   1.23736  -1.75259
H    -2.83423  -1.00639  -0.50876
H    -3.31149   0.68204  -0.81453
H    -3.13380  -0.45605  -2.17118
H     0.66312  -0.35225  -2.05409
H    -1.13819  -2.51884  -0.75966
H     0.49283  -2.72609  -1.45216
H    -0.91273  -2.53327  -2.51814
27

C     2.28974   1.18653  -0.32081
C     2.06016  -0.26942   0.00871
O     2.90611  -1.12992  -0.26611
C     0.82302  -0.65879   0.70969
C     0.80182  -1.97773   1.42705
N     0.00722   0.32451   1.20997
C    -0.91124   0.90431   0.52114
C    -1.59448   2.05264   1.07762
N    -2.22765   2.97798   1.39130
C    -1.23021   0.27976  -1.18851
C    -2.69901  -0.15186  -1.18199
C    -0.20744  -0.69998  -1.45985
C    -0.46551  -2.17988  -1.55640
H     1.38783   1.65475  -0.73525
H     3.11479   1.26422  -1.03957
H     2.55622   1.74239   0.59440
H    -0.22821  -2.27608   1.66412
H     1.36987  -1.97836   2.40802
H     1.28032  -2.73459   0.80432
H    -1.07595   1.23735  -1.75232
H    -2.83560  -1.00653  -0.50890
H    -3.31344   0.68150  -0.81583
H    -3.12852  -0.45571  -2.17277
H     0.66286  -0.35198  -2.05366
H    -1.13838  -2.51993  -0.75999
H     0.49218  -2.72700  -1.45379
H    -0.91362  -2.52899  -2.51882
27

C     2.28972   1.18671  -0.32097
C     2.05702  -0.27002   0.00485
O     2.90629  -1.12957  -0.26614
C     0.81452  -0.66072   0.69573
C     0.80016  -1.97625   1.42205
N     0.00560   0.32942   1.21815
C    -0.91280   0.89673   0.49826
C    -1.59548   2.04775   1.06737
N    -2.22403   2.97278   1.39065
C    -1.22575   0.28758  -1.16145
C    -2.69733  -0.15110  -1.17969
C    -0.19990  -0.69879  -1.44084
C    -0.46593  -2.17777  -1.55490
H     1.38834   1.65579  -0.73525
H     3.11508   1.26430  -1.03928
H     2.55640   1.74163   0.59482
H    -0.22828  -2.27655   1.66367
H     1.36975  -1.97545   2.40643
H     1.28048  -2.73490   0.80416
H    -1.07596   1.23733  -1.75206
H    -2.83697  -1.00667  -0.50905
H    -3.31540   0.68096  -0.81714
H    -3.12324  -0.45536  -2.17437
H     0.66260  -0.35170  -2.05323
H    -1.13858  -2.52102  -0.76031
H     0.49153  -2.72791  -1.45541
H    -0.91451  -2.52471  -2.51950
