13

C -4.982406395 -0.029013740 0.543302799
C -2.759079170 0.716702311 -0.401297289
C -0.507475330 -0.609531596 0.387726069
C 1.636169287 -0.162319292 -1.184048835
C 3.916004653 0.520150687 0.449280685
N 3.867988828 -1.813044988 -0.873143685
H -2.720486919 2.198363093 -1.842131558
H -6.765939417 0.741553570 -0.112912667
H -5.028006394 -1.493496155 1.974456984
H 1.552380513 0.756328186 -3.025207467
H 3.646580692 0.541779831 2.477976173
H 5.116724954 1.983967579 -0.329416812
H 3.355064454 -3.216212575 0.332961863

