13

C -3.153550863 0.703587290 0.019809716
N -0.492540882 0.202417844 0.206712076
C 0.629568135 -2.249615394 0.247999455
C 3.814199173 0.666630143 0.432495477
C 1.385962197 1.947731060 0.038154799
O 1.217141208 4.214984459 -0.268954647
H -4.167483188 -0.101480825 1.629578697
H -3.398778978 2.747742042 0.026406353
H -3.954927115 -0.055912839 -1.727386386
H 0.765145856 -3.181496511 -1.589079145
H -0.198791214 -3.514520583 1.655455756
H 2.663405870 -1.930423625 1.034158177
H 4.754219131 0.315702125 -1.387141216

