15

C -2.653548738 -1.984272978 0.847411776
C -0.642444616 -0.134606363 0.142383512
C -0.931653404 2.648519666 0.236721796
N 0.818650371 1.475606118 1.998612030
C 3.179842244 1.045226776 0.495684214
C 1.751368636 -0.726014522 -1.238593814
N 2.483135730 -2.307065809 -2.849535673
H -3.863079528 -1.202917145 2.320875625
H -1.825593053 -3.738582349 1.548531556
H -3.838828200 -2.428850418 -0.783214548
H 1.015329060 -3.385750809 -3.476243557
H -0.189436635 3.821808514 -1.274592039
H -2.641676420 3.353695782 1.115381309
H 3.991632135 2.760448919 -0.312335068
H 4.599740767 0.057314373 1.611933909

