13

C 4.382855709 0.436055040 0.222416362
O 2.035774950 -0.672296336 0.950727204
C -0.021030271 0.250837540 -0.193583469
O 0.032671305 1.908710143 -1.743017294
C -2.396246954 -1.071826788 0.727819759
N -4.723321429 -0.216242721 -0.399254608
H 5.823425379 -0.521027218 1.330123606
H 4.386412778 2.455808420 0.627002511
H 4.720202852 0.156148826 -1.790405200
H -2.477629522 -0.848207880 2.779707799
H -2.149651074 -3.095953919 0.398825980
H -4.954833099 1.656840340 -0.095639398
H -4.658630642 -0.438845429 -2.296750474

