13

O 1.559956236 -2.987301130 1.369763352
C 2.749019402 -1.787270144 -0.383728335
N 3.418787360 0.572680822 -0.224445569
C -0.418732450 1.945258316 -0.162402062
C -1.826942544 0.424855370 1.341085851
C -2.256124575 0.316160214 -1.475650867
H 2.955881674 -2.740026403 -2.207227798
H 3.377760877 1.091973252 1.628822372
H 0.284432997 3.842224567 -0.341204943
H -0.140964234 -1.623639175 1.769215077
H -2.974780730 0.783931982 2.988179040
H -3.860379563 1.229541194 -2.374036361
H -1.594726592 -1.365937582 -2.457729232

