12

O 3.761318607 -1.420695874 -1.860993217
C 2.192519001 -1.212896392 -0.232586792
C 0.114032499 0.684822348 -0.424147517
H 0.438821807 2.056546989 -1.914009842
C -2.601695390 0.091570572 0.087295974
H -4.068362102 0.820347307 -1.138185881
C -2.906822759 -1.717431366 2.259509509
H -3.831730086 -3.518722333 2.491201629
C -1.495219056 -0.194743080 3.673774985
H -0.631531618 -0.204144940 5.525182547
N -1.180076442 1.809614171 1.784878091
H 2.227732914 -2.422407132 1.463757176

