12

N 4.932794849 2.671837885 0.169359126
C 3.567575797 0.998264606 0.344879874
C 1.788997902 -1.114644126 0.516248630
O 0.216357843 -1.060471385 2.729557925
C -1.989559486 -1.565948198 1.324990354
C -2.027485609 1.283840906 -0.728625689
C -0.559122377 -1.059619327 -1.144109228
H 2.827362043 -2.893416796 0.416139784
H -3.390579872 0.416312845 1.230476155
H -3.579128789 1.582977768 -2.031753046
H -1.074961201 2.947928062 -0.007064968
H -0.739750375 -2.117765102 -2.881169216

