10

O 4.100795377 -0.360464200 0.377521775
C 1.600657063 -0.355626142 0.183168111
C 0.411406605 2.006026390 -0.317028373
N -2.018630674 2.089489735 -0.516179012
N -3.191522150 -0.123497419 -0.222989308
C -2.240936260 -2.457515560 0.251651408
N 0.352124574 -2.448684265 0.448905953
H 4.595625340 -2.087774033 0.717199895
H 1.465598053 3.745038806 -0.534903382
H -5.082402841 0.024327049 -0.392876405

