15

C 4.440617871 -1.213751134 0.254477531
C 1.699885088 -0.561911348 0.069991279
C -0.292258731 -2.008815267 -0.727315731
C -2.404773796 -0.271225871 -0.495411621
N -4.981312887 -0.871521828 -0.709662250
C -1.529774116 2.156079205 0.440510769
N 0.954351396 1.881225853 0.804026669
H 5.175806296 -0.935415395 2.166529333
H 4.667989870 -3.194097507 -0.245487839
H 5.596929476 -0.087909662 -1.038695637
H -1.870028942 1.341213180 -2.121376142
H -5.937363127 -0.626226911 0.920157520
H -5.138351735 -2.683759033 -1.289885120
H -2.560937833 3.873814457 0.833254590
H 2.130664656 3.339257272 1.140976685

