15

C -3.964428677 -0.614589240 -0.389067246
C -1.295862078 -0.053804641 0.326904705
C 0.138820793 2.080036172 -0.624982318
N 2.204446556 2.335882393 1.097481879
C 2.695458158 -0.238075974 1.346015636
N 4.254647807 -0.847114994 -0.545427588
C 0.309482621 -1.501854471 1.717169752
H -4.473770074 -2.557504995 0.069348621
H -5.268632610 0.640954945 0.603457544
H -4.249610553 -0.329929627 -2.412845156
H -0.790728590 3.770424517 -1.328308921
H 3.723782221 3.198334103 0.319706644
H 4.340674641 -2.745141193 -0.826666362
H 2.326833572 0.300926999 -2.068764919
H 0.046561850 -3.439243192 2.299701300

