13

C -2.582173744 -2.551929414 -0.590975582
N -0.407870701 -0.945527301 -0.304926831
C 1.723976791 3.091816685 0.611677475
C 0.164334174 1.558338403 -1.272329507
C 2.930723863 0.985786782 -0.827160488
C 2.031930189 -1.338210368 0.198216661
H -2.886515403 -3.074503789 -2.567154730
H -4.262089492 -1.584122677 0.109115810
H -2.295771955 -4.269571617 0.509133206
H 2.084375229 5.013841574 -0.012288643
H 1.302780837 2.917954304 2.619054244
H -0.758360284 2.309941462 -2.932015983
H 2.819962707 -2.863644180 1.318407984

