11

C -2.570006856 0.027694447 -2.071561223
N -0.659707680 -0.705962374 2.480519385
C 0.858663092 -0.097060605 0.730355847
O 0.058126105 0.358796139 -1.632442861
N 3.448821760 0.127189340 0.825084076
H -2.855289171 0.444407327 -4.064198695
H -3.137020653 -1.907137097 -1.646957809
H -3.674594975 1.310041373 -0.896769589
H 0.250911523 -1.011864549 4.135001158
H 4.211348059 0.448391361 2.531165236
H 4.246536139 1.076121795 -0.613935300

