12

N 3.579499232 -0.151680417 0.696161234
C 1.688247664 1.453956509 -0.183728056
O 2.151117445 3.106724111 -1.719760113
C -0.810386353 1.009718217 0.880465750
C -2.862831541 0.507629154 -0.884608691
N -1.724699933 -1.678959168 0.477606376
H 5.332966616 0.458637494 0.271008137
H 3.379369620 -0.758274925 2.488469255
H -0.698071218 -2.888276552 -0.593204589
H -2.536246804 0.415092611 -2.915136231
H -4.809175693 0.903095636 -0.366001759
H -2.707582678 -2.518800626 1.878472976

