9

C 3.260994945 0.730484140 1.358144125
C 4.695642251 -0.602290676 -0.701594933
H 4.444760605 -2.647631646 -0.579917528
H 4.062886091 0.008746578 -2.563519747
H 6.717110954 -0.211258720 -0.557181912
C 1.454353786 2.356126595 0.938490150
N -0.089243734 4.025712476 0.534550306
H -1.908734823 3.426197165 0.382917321
H 3.709820377 0.337357555 3.317746728

