10

O 4.298930553 -0.010737235 0.278985105
C 2.032371648 0.190361372 0.122166145
C 0.593520381 2.549546829 -0.092647659
N -1.821915759 2.696617429 -0.258271515
N -3.271104319 0.542125046 -0.242462709
C -2.123993658 -1.587274532 -0.056316049
N 0.418480342 -1.871132202 0.125679807
H 1.205404063 -3.602636264 0.267145631
H 1.661721313 4.298810858 -0.112634896
H -3.244819948 -3.302917178 -0.040185404

