10

O 4.004374104 -0.737221449 0.331699979
C 1.772233272 0.102284091 0.126454954
C 0.638609228 2.522103092 -0.078443949
N -1.815077974 2.709707524 -0.269458335
N -3.315512410 0.667690639 -0.278738421
C -2.264522008 -1.569579288 -0.088685565
N 0.221732451 -1.902673696 0.112176089
H 2.477344079 -2.825074548 0.322998641
H 1.734653649 4.248040172 -0.082787087
H -3.486218646 -3.211943079 -0.097291227

