29

C     4.42069   0.26103   1.09496
N     2.98679   0.07693   1.06022
C     2.40495  -0.58263   0.04860
O     3.00688  -1.09978  -0.89856
C     0.96411  -0.79524   0.19004
C    -0.02966  -1.44954   0.35991
C    -0.96736  -2.39850   0.67360
N    -1.66181  -3.28822   1.00134
C    -1.73905   0.55485  -0.39495
C    -2.96384  -0.22520  -0.45027
C    -3.79533  -0.25446   0.79843
O    -3.26264  -0.80212  -1.49881
N    -0.83949   0.68954  -1.37955
C     0.22905   1.41937  -0.99436
C     1.40094   1.78664  -1.82099
C    -0.01070   1.77328   0.37773
O     0.59742   2.43684   1.20186
O    -1.26172   1.18102   0.68550
H     4.73836   0.87374   0.24592
H     4.93254  -0.71355   1.03384
H     4.67726   0.74797   2.03043
H     2.38343   0.54681   1.73404
H    -3.24053  -0.70857   1.63214
H    -4.01588   0.79067   1.09011
H    -4.72180  -0.79904   0.60997
H    -0.96156   0.24068  -2.30079
H     1.73266   0.97910  -2.49061
H     2.25108   2.04186  -1.14718
H     1.12413   2.65963  -2.37928
29

C     4.41856   0.25952   1.09455
N     2.98435   0.07347   1.06121
C     2.40105  -0.58461   0.04887
O     3.00410  -1.10235  -0.89735
C     0.95775  -0.77898   0.17958
C    -0.04619  -1.42793   0.35097
C    -0.96208  -2.39285   0.67308
N    -1.65246  -3.28484   1.00076
C    -1.72522   0.53512  -0.38849
C    -2.96175  -0.22892  -0.44868
C    -3.79486  -0.25356   0.79820
O    -3.26178  -0.80043  -1.49823
N    -0.84107   0.69183  -1.38200
C     0.23597   1.40414  -0.98919
C     1.40212   1.78390  -1.81756
C    -0.01197   1.77097   0.38037
O     0.59529   2.43821   1.20013
O    -1.26209   1.18128   0.68753
H     4.73737   0.87341   0.24572
H     4.93232  -0.71376   1.03369
H     4.67667   0.74768   2.03024
H     2.38304   0.54620   1.73428
H    -3.24078  -0.70810   1.63245
H    -4.01487   0.79132   1.08936
H    -4.72207  -0.79811   0.60998
H    -0.95986   0.23857  -2.30007
H     1.73338   0.97985  -2.49111
H     2.25173   2.04163  -1.14685
H     1.12176   2.65901  -2.37643
29

C     4.41643   0.25802   1.09413
N     2.98192   0.07000   1.06221
C     2.39716  -0.58659   0.04914
O     3.00132  -1.10492  -0.89615
C     0.95139  -0.76273   0.16913
C    -0.06271  -1.40632   0.34203
C    -0.95679  -2.38720   0.67256
N    -1.64310  -3.28145   1.00019
C    -1.71138   0.51540  -0.38203
C    -2.95965  -0.23265  -0.44710
C    -3.79438  -0.25265   0.79796
O    -3.26091  -0.79874  -1.49765
N    -0.84265   0.69413  -1.38445
C     0.24288   1.38892  -0.98402
C     1.40331   1.78116  -1.81412
C    -0.01325   1.76866   0.38301
O     0.59316   2.43957   1.19841
O    -1.26245   1.18155   0.68955
H     4.73638   0.87309   0.24553
H     4.93210  -0.71397   1.03354
H     4.67608   0.74739   2.03004
H     2.38265   0.54559   1.73452
H    -3.24103  -0.70763   1.63276
H    -4.01385   0.79196   1.08862
H    -4.72234  -0.79718   0.60999
H    -0.95816   0.23646  -2.29935
H     1.73411   0.98061  -2.49160
H     2.25239   2.04139  -1.14651
H     1.11939   2.65839  -2.37358
29

C     4.41430   0.25651   1.09371
N     2.97949   0.06653   1.06320
C     2.39326  -0.58858   0.04941
O     2.99853  -1.10749  -0.89494
C     0.94503  -0.74647   0.15868
C    -0.07924  -1.38471   0.33309
C    -0.95151  -2.38155   0.67204
N    -1.63375  -3.27807   0.99962
C    -1.69755   0.49567  -0.37557
C    -2.95756  -0.23637  -0.44551
C    -3.79391  -0.25175   0.79773
O    -3.26004  -0.79706  -1.49707
N    -0.84423   0.69643  -1.38689
C     0.24979   1.37370  -0.97885
C     1.40450   1.77843  -1.81068
C    -0.01452   1.76635   0.38565
O     0.59103   2.44094   1.19668
O    -1.26281   1.18182   0.69158
H     4.73540   0.87276   0.24533
H     4.93188  -0.71418   1.03339
H     4.67549   0.74710   2.02985
H     2.38227   0.54498   1.73476
H    -3.24128  -0.70717   1.63307
H    -4.01284   0.79261   1.08788
H    -4.72262  -0.79625   0.61000
H    -0.95646   0.23434  -2.29863
H     1.73483   0.98136  -2.49210
H     2.25304   2.04116  -1.14617
H     1.11702   2.65777  -2.37073
29

C     4.41218   0.25501   1.09330
N     2.97706   0.06307   1.06419
C     2.38937  -0.59056   0.04968
O     2.99575  -1.11005  -0.89373
C     0.93868  -0.73021   0.14822
C    -0.09576  -1.36309   0.32415
C    -0.94622  -2.37591   0.67152
N    -1.62440  -3.27468   0.99904
C    -1.68372   0.47595  -0.36911
C    -2.95547  -0.24010  -0.44393
C    -3.79344  -0.25085   0.79750
O    -3.25917  -0.79537  -1.49649
N    -0.84581   0.69872  -1.38934
C     0.25670   1.35847  -0.97368
C     1.40569   1.77569  -1.80724
C    -0.01580   1.76404   0.38829
O     0.58890   2.44230   1.19495
O    -1.26317   1.18209   0.69361
H     4.73441   0.87243   0.24513
H     4.93166  -0.71439   1.03325
H     4.67491   0.74680   2.02965
H     2.38188   0.54436   1.73500
H    -3.24154  -0.70670   1.63338
H    -4.01182   0.79325   1.08714
H    -4.72289  -0.79531   0.61001
H    -0.95476   0.23223  -2.29791
H     1.73555   0.98211  -2.49260
H     2.25369   2.04093  -1.14584
H     1.11465   2.65715  -2.36788
29

C     4.41005   0.25350   1.09288
N     2.97463   0.05960   1.06518
C     2.38548  -0.59255   0.04994
O     2.99297  -1.11262  -0.89252
C     0.93232  -0.71396   0.13777
C    -0.11228  -1.34148   0.31521
C    -0.94094  -2.37026   0.67101
N    -1.61505  -3.27130   0.99847
C    -1.66989   0.45622  -0.36265
C    -2.95337  -0.24382  -0.44235
C    -3.79297  -0.24995   0.79726
O    -3.25831  -0.79368  -1.49591
N    -0.84738   0.70102  -1.39178
C     0.26361   1.34325  -0.96851
C     1.40688   1.77296  -1.80381
C    -0.01707   1.76173   0.39093
O     0.58677   2.44367   1.19322
O    -1.26353   1.18235   0.69564
H     4.73342   0.87210   0.24493
H     4.93144  -0.71460   1.03310
H     4.67432   0.74651   2.02946
H     2.38149   0.54375   1.73524
H    -3.24179  -0.70623   1.63369
H    -4.01081   0.79389   1.08640
H    -4.72316  -0.79438   0.61002
H    -0.95306   0.23012  -2.29719
H     1.73627   0.98287  -2.49310
H     2.25435   2.04070  -1.14550
H     1.11228   2.65653  -2.36503
29

C     4.40792   0.25199   1.09247
N     2.97220   0.05613   1.06617
C     2.38158  -0.59453   0.05021
O     2.99019  -1.11519  -0.89131
C     0.92596  -0.69770   0.12732
C    -0.12881  -1.31987   0.30627
C    -0.93565  -2.36461   0.67049
N    -1.60570  -3.26792   0.99790
C    -1.65606   0.43649  -0.35619
C    -2.95128  -0.24755  -0.44076
C    -3.79250  -0.24904   0.79703
O    -3.25744  -0.79200  -1.49533
N    -0.84896   0.70331  -1.39423
C     0.27052   1.32803  -0.96334
C     1.40806   1.77022  -1.80037
C    -0.01835   1.75942   0.39357
O     0.58463   2.44503   1.19149
O    -1.26389   1.18262   0.69767
H     4.73243   0.87177   0.24473
H     4.93122  -0.71481   1.03295
H     4.67373   0.74622   2.02926
H     2.38110   0.54314   1.73548
H    -3.24204  -0.70577   1.63400
H    -4.00979   0.79454   1.08566
H    -4.72344  -0.79345   0.61003
H    -0.95136   0.22800  -2.29647
H     1.73700   0.98362  -2.49359
H     2.25500   2.04046  -1.14516
H     1.10991   2.65591  -2.36218
29

C     4.40579   0.25049   1.09205
N     2.96977   0.05266   1.06716
C     2.37769  -0.59652   0.05048
O     2.98740  -1.11776  -0.89010
C     0.91961  -0.68145   0.11687
C    -0.14533  -1.29826   0.29733
C    -0.93037  -2.35896   0.66997
N    -1.59635  -3.26453   0.99732
C    -1.64222   0.41677  -0.34973
C    -2.94919  -0.25128  -0.43918
C    -3.79202  -0.24814   0.79679
O    -3.25657  -0.79031  -1.49475
N    -0.85054   0.70561  -1.39668
C     0.27744   1.31280  -0.95817
C     1.40925   1.76749  -1.79693
C    -0.01962   1.75711   0.39621
O     0.58250   2.44640   1.18976
O    -1.26426   1.18289   0.69970
H     4.73145   0.87144   0.24454
H     4.93100  -0.71502   1.03280
H     4.67314   0.74593   2.02907
H     2.38071   0.54253   1.73572
H    -3.24229  -0.70530   1.63431
H    -4.00878   0.79518   1.08492
H    -4.72371  -0.79252   0.61004
H    -0.94967   0.22589  -2.29575
H     1.73772   0.98438  -2.49409
H     2.25565   2.04023  -1.14483
H     1.10754   2.65529  -2.35933
29

C     4.40366   0.24898   1.09163
N     2.96734   0.04920   1.06816
C     2.37379  -0.59850   0.05075
O     2.98462  -1.12032  -0.88890
C     0.91325  -0.66519   0.10641
C    -0.16186  -1.27664   0.28839
C    -0.92508  -2.35332   0.66945
N    -1.58699  -3.26115   0.99675
C    -1.62839   0.39704  -0.34327
C    -2.94709  -0.25500  -0.43760
C    -3.79155  -0.24724   0.79656
O    -3.25571  -0.78862  -1.49417
N    -0.85212   0.70790  -1.39912
C     0.28435   1.29758  -0.95300
C     1.41044   1.76475  -1.79349
C    -0.02090   1.75480   0.39885
O     0.58037   2.44776   1.18803
O    -1.26462   1.18316   0.70173
H     4.73046   0.87111   0.24434
H     4.93078  -0.71523   1.03265
H     4.67256   0.74563   2.02887
H     2.38033   0.54191   1.73596
H    -3.24254  -0.70483   1.63462
H    -4.00776   0.79583   1.08418
H    -4.72399  -0.79158   0.61005
H    -0.94797   0.22378  -2.29503
H     1.73844   0.98513  -2.49459
H     2.25630   2.04000  -1.14449
H     1.10517   2.65466  -2.35648
29

C     4.40154   0.24748   1.09122
N     2.96491   0.04573   1.06915
C     2.36990  -0.60049   0.05102
O     2.98184  -1.12289  -0.88769
C     0.90689  -0.64894   0.09596
C    -0.17838  -1.25503   0.27945
C    -0.91980  -2.34767   0.66893
N    -1.57764  -3.25776   0.99618
C    -1.61456   0.37732  -0.33681
C    -2.94500  -0.25873  -0.43601
C    -3.79108  -0.24633   0.79633
O    -3.25484  -0.78693  -1.49359
N    -0.85370   0.71020  -1.40157
C     0.29126   1.28236  -0.94783
C     1.41163   1.76202  -1.79006
C    -0.02217   1.75249   0.40149
O     0.57824   2.44913   1.18631
O    -1.26498   1.18343   0.70376
H     4.72947   0.87079   0.24414
H     4.93056  -0.71544   1.03251
H     4.67197   0.74534   2.02868
H     2.37994   0.54130   1.73620
H    -3.24279  -0.70436   1.63493
H    -4.00675   0.79647   1.08343
H    -4.72426  -0.79065   0.61006
H    -0.94627   0.22166  -2.29431
H     1.73917   0.98589  -2.49509
H     2.25696   2.03977  -1.14415
H     1.10280   2.65404  -2.35363
29

C     4.39941   0.24597   1.09080
N     2.96248   0.04226   1.07014
C     2.36601  -0.60247   0.05129
O     2.97906  -1.12546  -0.88648
C     0.90054  -0.63268   0.08551
C    -0.19491  -1.23342   0.27051
C    -0.91451  -2.34202   0.66842
N    -1.56829  -3.25438   0.99560
C    -1.60073   0.35759  -0.33035
C    -2.94291  -0.26245  -0.43443
C    -3.79061  -0.24543   0.79609
O    -3.25397  -0.78525  -1.49301
N    -0.85528   0.71250  -1.40402
C     0.29817   1.26713  -0.94266
C     1.41282   1.75928  -1.78662
C    -0.02345   1.75018   0.40414
O     0.57611   2.45049   1.18458
O    -1.26534   1.18369   0.70579
H     4.72848   0.87046   0.24394
H     4.93034  -0.71565   1.03236
H     4.67138   0.74505   2.02848
H     2.37955   0.54069   1.73644
H    -3.24304  -0.70390   1.63524
H    -4.00573   0.79712   1.08269
H    -4.72453  -0.78972   0.61007
H    -0.94457   0.21955  -2.29359
H     1.73989   0.98664  -2.49558
H     2.25761   2.03954  -1.14382
H     1.10043   2.65342  -2.35078
29

C     4.39728   0.24447   1.09039
N     2.96005   0.03880   1.07113
C     2.36211  -0.60446   0.05155
O     2.97628  -1.12803  -0.88527
C     0.89418  -0.61643   0.07505
C    -0.21143  -1.21181   0.26157
C    -0.90923  -2.33638   0.66790
N    -1.55894  -3.25100   0.99503
C    -1.58690   0.33787  -0.32389
C    -2.94082  -0.26618  -0.43284
C    -3.79014  -0.24453   0.79586
O    -3.25311  -0.78356  -1.49243
N    -0.85685   0.71479  -1.40646
C     0.30508   1.25191  -0.93749
C     1.41400   1.75654  -1.78318
C    -0.02472   1.74787   0.40678
O     0.57398   2.45186   1.18285
O    -1.26570   1.18396   0.70781
H     4.72749   0.87013   0.24374
H     4.93012  -0.71586   1.03221
H     4.67079   0.74476   2.02829
H     2.37916   0.54008   1.73667
H    -3.24329  -0.70343   1.63555
H    -4.00472   0.79776   1.08195
H    -4.72481  -0.78879   0.61008
H    -0.94287   0.21744  -2.29287
H     1.74061   0.98739  -2.49608
H     2.25826   2.03930  -1.14348
H     1.09806   2.65280  -2.34793
29

C     4.39515   0.24296   1.08997
N     2.95762   0.03533   1.07212
C     2.35822  -0.60644   0.05182
O     2.97349  -1.13059  -0.88406
C     0.88782  -0.60017   0.06460
C    -0.22796  -1.19019   0.25263
C    -0.90394  -2.33073   0.66738
N    -1.54959  -3.24761   0.99446
C    -1.57307   0.31814  -0.31743
C    -2.93872  -0.26990  -0.43126
C    -3.78966  -0.24362   0.79563
O    -3.25224  -0.78187  -1.49185
N    -0.85843   0.71709  -1.40891
C     0.31199   1.23669  -0.93232
C     1.41519   1.75381  -1.77975
C    -0.02600   1.74556   0.40942
O     0.57185   2.45322   1.18112
O    -1.26606   1.18423   0.70984
H     4.72651   0.86980   0.24354
H     4.92990  -0.71607   1.03206
H     4.67021   0.74446   2.02809
H     2.37878   0.53947   1.73691
H    -3.24354  -0.70296   1.63586
H    -4.00370   0.79840   1.08121
H    -4.72508  -0.78785   0.61009
H    -0.94117   0.21532  -2.29215
H     1.74133   0.98815  -2.49658
H     2.25892   2.03907  -1.14314
H     1.09569   2.65218  -2.34507
29

C     4.39302   0.24146   1.08956
N     2.95519   0.03186   1.07311
C     2.35432  -0.60843   0.05209
O     2.97071  -1.13316  -0.88285
C     0.88146  -0.58392   0.05415
C    -0.24448  -1.16858   0.24369
C    -0.89866  -2.32508   0.66686
N    -1.54024  -3.24423   0.99388
C    -1.55923   0.29841  -0.31097
C    -2.93663  -0.27363  -0.42968
C    -3.78919  -0.24272   0.79539
O    -3.25137  -0.78019  -1.49126
N    -0.86001   0.71938  -1.41135
C     0.31890   1.22146  -0.92715
C     1.41638   1.75107  -1.77631
C    -0.02727   1.74325   0.41206
O     0.56971   2.45459   1.17939
O    -1.26642   1.18450   0.71187
H     4.72552   0.86947   0.24335
H     4.92968  -0.71628   1.03192
H     4.66962   0.74417   2.02790
H     2.37839   0.53885   1.73715
H    -3.24379  -0.70250   1.63617
H    -4.00268   0.79905   1.08047
H    -4.72535  -0.78692   0.61010
H    -0.93947   0.21321  -2.29143
H     1.74206   0.98890  -2.49708
H     2.25957   2.03884  -1.14281
H     1.09332   2.65156  -2.34222
29

C     4.39090   0.23995   1.08914
N     2.95276   0.02840   1.07410
C     2.35043  -0.61041   0.05236
O     2.96793  -1.13573  -0.88165
C     0.87511  -0.56766   0.04369
C    -0.26100  -1.14697   0.23475
C    -0.89337  -2.31943   0.66634
N    -1.53088  -3.24084   0.99331
C    -1.54540   0.27869  -0.30451
C    -2.93454  -0.27735  -0.42809
C    -3.78872  -0.24182   0.79516
O    -3.25050  -0.77850  -1.49068
N    -0.86159   0.72168  -1.41380
C     0.32582   1.20624  -0.92198
C     1.41757   1.74834  -1.77287
C    -0.02855   1.74094   0.41470
O     0.56758   2.45595   1.17766
O    -1.26679   1.18476   0.71390
H     4.72453   0.86914   0.24315
H     4.92946  -0.71649   1.03177
H     4.66903   0.74388   2.02770
H     2.37800   0.53824   1.73739
H    -3.24404  -0.70203   1.63648
H    -4.00167   0.79969   1.07973
H    -4.72563  -0.78599   0.61011
H    -0.93778   0.21110  -2.29071
H     1.74278   0.98966  -2.49757
H     2.26022   2.03861  -1.14247
H     1.09096   2.65094  -2.33937
29

C     4.38877   0.23845   1.08872
N     2.95033   0.02493   1.07510
C     2.34654  -0.61239   0.05263
O     2.96515  -1.13830  -0.88044
C     0.86875  -0.55141   0.03324
C    -0.27753  -1.12536   0.22581
C    -0.88809  -2.31379   0.66583
N    -1.52153  -3.23746   0.99274
C    -1.53157   0.25896  -0.29804
C    -2.93244  -0.28108  -0.42651
C    -3.78825  -0.24092   0.79493
O    -3.24964  -0.77681  -1.49010
N    -0.86317   0.72397  -1.41625
C     0.33273   1.19102  -0.91681
C     1.41876   1.74560  -1.76943
C    -0.02982   1.73863   0.41734
O     0.56545   2.45732   1.17594
O    -1.26715   1.18503   0.71593
H     4.72354   0.86881   0.24295
H     4.92924  -0.71670   1.03162
H     4.66844   0.74359   2.02751
H     2.37761   0.53763   1.73763
H    -3.24429  -0.70156   1.63679
H    -4.00065   0.80034   1.07899
H    -4.72590  -0.78506   0.61012
H    -0.93608   0.20898  -2.28999
H     1.74350   0.99041  -2.49807
H     2.26087   2.03838  -1.14214
H     1.08859   2.65032  -2.33652
29

C     4.38664   0.23694   1.08831
N     2.94790   0.02146   1.07609
C     2.34264  -0.61438   0.05289
O     2.96236  -1.14086  -0.87923
C     0.86239  -0.53515   0.02279
C    -0.29405  -1.10374   0.21687
C    -0.88280  -2.30814   0.66531
N    -1.51218  -3.23408   0.99216
C    -1.51774   0.23924  -0.29158
C    -2.93035  -0.28480  -0.42493
C    -3.78777  -0.24001   0.79469
O    -3.24877  -0.77512  -1.48952
N    -0.86474   0.72627  -1.41869
C     0.33964   1.17580  -0.91164
C     1.41994   1.74287  -1.76600
C    -0.03110   1.73632   0.41998
O     0.56332   2.45868   1.17421
O    -1.26751   1.18530   0.71796
H     4.72255   0.86848   0.24275
H     4.92902  -0.71691   1.03147
H     4.66785   0.74330   2.02731
H     2.37722   0.53702   1.73787
H    -3.24454  -0.70110   1.63710
H    -3.99964   0.80098   1.07825
H    -4.72617  -0.78412   0.61013
H    -0.93438   0.20687  -2.28927
H     1.74423   0.99117  -2.49857
H     2.26153   2.03814  -1.14180
H     1.08622   2.64970  -2.33367
29

C     4.38451   0.23544   1.08789
N     2.94547   0.01799   1.07708
C     2.33875  -0.61636   0.05316
O     2.95958  -1.14343  -0.87802
C     0.85604  -0.51890   0.01234
C    -0.31058  -1.08213   0.20793
C    -0.87752  -2.30249   0.66479
N    -1.50283  -3.23069   0.99159
C    -1.50391   0.21951  -0.28512
C    -2.92826  -0.28853  -0.42334
C    -3.78730  -0.23911   0.79446
O    -3.24790  -0.77344  -1.48894
N    -0.86632   0.72857  -1.42114
C     0.34655   1.16057  -0.90647
C     1.42113   1.74013  -1.76256
C    -0.03237   1.73401   0.42262
O     0.56119   2.46005   1.17248
O    -1.26787   1.18557   0.71999
H     4.72157   0.86816   0.24255
H     4.92880  -0.71712   1.03132
H     4.66727   0.74300   2.02712
H     2.37684   0.53640   1.73811
H    -3.24479  -0.70063   1.63741
H    -3.99862   0.80163   1.07750
H    -4.72645  -0.78319   0.61014
H    -0.93268   0.20476  -2.28855
H     1.74495   0.99192  -2.49906
H     2.26218   2.03791  -1.14146
H     1.08385   2.64908  -2.33082
29

C     4.38238   0.23393   1.08748
N     2.94304   0.01453   1.07807
C     2.33485  -0.61835   0.05343
O     2.95680  -1.14600  -0.87681
C     0.84968  -0.50264   0.00188
C    -0.32710  -1.06052   0.19899
C    -0.87223  -2.29684   0.66427
N    -1.49348  -3.22731   0.99102
C    -1.49008   0.19979  -0.27866
C    -2.92616  -0.29225  -0.42176
C    -3.78683  -0.23821   0.79422
O    -3.24704  -0.77175  -1.48836
N    -0.86790   0.73086  -1.42359
C     0.35346   1.14535  -0.90130
C     1.42232   1.73740  -1.75912
C    -0.03365   1.73170   0.42526
O     0.55906   2.46141   1.17075
O    -1.26823   1.18584   0.72202
H     4.72058   0.86783   0.24236
H     4.92858  -0.71733   1.03118
H     4.66668   0.74271   2.02692
H     2.37645   0.53579   1.73835
H    -3.24504  -0.70016   1.63772
H    -3.99761   0.80227   1.07676
H    -4.72672  -0.78226   0.61015
H    -0.93098   0.20264  -2.28783
H     1.74567   0.99267  -2.49956
H     2.26283   2.03768  -1.14113
H     1.08148   2.64846  -2.32797
29

C     4.38026   0.23243   1.08706
N     2.94061   0.01106   1.07906
C     2.33096  -0.62033   0.05370
O     2.95402  -1.14857  -0.87560
C     0.84332  -0.48639  -0.00857
C    -0.34363  -1.03891   0.19005
C    -0.86695  -2.29120   0.66375
N    -1.48413  -3.22392   0.99044
C    -1.47624   0.18006  -0.27220
C    -2.92407  -0.29598  -0.42017
C    -3.78636  -0.23730   0.79399
O    -3.24617  -0.77006  -1.48778
N    -0.86948   0.73316  -1.42603
C     0.36037   1.13013  -0.89613
C     1.42351   1.73466  -1.75568
C    -0.03492   1.72939   0.42790
O     0.55693   2.46278   1.16902
O    -1.26859   1.18610   0.72404
H     4.71959   0.86750   0.24216
H     4.92836  -0.71754   1.03103
H     4.66609   0.74242   2.02673
H     2.37606   0.53518   1.73859
H    -3.24529  -0.69969   1.63803
H    -3.99659   0.80291   1.07602
H    -4.72699  -0.78133   0.61016
H    -0.92928   0.20053  -2.28711
H     1.74639   0.99343  -2.50006
H     2.26348   2.03745  -1.14079
H     1.07911   2.64783  -2.32512
29

C     4.37813   0.23092   1.08664
N     2.93818   0.00759   1.08005
C     2.32707  -0.62232   0.05397
O     2.95124  -1.15113  -0.87439
C     0.83697  -0.47013  -0.01902
C    -0.36015  -1.01729   0.18111
C    -0.86166  -2.28555   0.66323
N    -1.47478  -3.22054   0.98987
C    -1.46241   0.16033  -0.26574
C    -2.92198  -0.29970  -0.41859
C    -3.78589  -0.23640   0.79376
O    -3.24530  -0.76838  -1.48720
N    -0.87106   0.73545  -1.42848
C     0.36729   1.11490  -0.89096
C     1.42470   1.73193  -1.75225
C    -0.03620   1.72708   0.43054
O     0.55480   2.46414   1.16729
O    -1.26896   1.18637   0.72607
H     4.71860   0.86717   0.24196
H     4.92814  -0.71775   1.03088
H     4.66550   0.74213   2.02653
H     2.37567   0.53457   1.73883
H    -3.24554  -0.69923   1.63834
H    -3.99558   0.80356   1.07528
H    -4.72727  -0.78039   0.61017
H    -0.92758   0.19842  -2.28639
H     1.74712   0.99418  -2.50056
H     2.26414   2.03722  -1.14045
H     1.07674   2.64721  -2.32227
29

C     4.38026   0.23243   1.08706
N     2.94061   0.01106   1.07906
C     2.33096  -0.62033   0.05370
O     2.95402  -1.14857  -0.87560
C     0.84332  -0.48639  -0.00857
C    -0.34363  -1.03891   0.19005
C    -0.86695  -2.29120   0.66375
N    -1.48413  -3.22392   0.99044
C    -1.47624   0.18006  -0.27220
C    -2.92407  -0.29598  -0.42017
C    -3.78636  -0.23730   0.79399
O    -3.24617  -0.77006  -1.48778
N    -0.86948   0.73316  -1.42603
C     0.36037   1.13013  -0.89613
C     1.42351   1.73466  -1.75568
C    -0.03492   1.72939   0.42790
O     0.55693   2.46278   1.16902
O    -1.26859   1.18610   0.72404
H     4.71959   0.86750   0.24216
H     4.92836  -0.71754   1.03103
H     4.66609   0.74242   2.02673
H     2.37606   0.53518   1.73859
H    -3.24529  -0.69969   1.63803
H    -3.99659   0.80291   1.07602
H    -4.72699  -0.78133   0.61016
H    -0.92928   0.20053  -2.28711
H     1.74639   0.99343  -2.50006
H     2.26348   2.03745  -1.14079
H     1.07911   2.64783  -2.32512
29

C     4.38238   0.23393   1.08748
N     2.94304   0.01453   1.07807
C     2.33485  -0.61835   0.05343
O     2.95680  -1.14600  -0.87681
C     0.84968  -0.50264   0.00188
C    -0.32710  -1.06052   0.19899
C    -0.87223  -2.29684   0.66427
N    -1.49348  -3.22731   0.99102
C    -1.49008   0.19979  -0.27866
C    -2.92616  -0.29225  -0.42176
C    -3.78683  -0.23821   0.79422
O    -3.24704  -0.77175  -1.48836
N    -0.86790   0.73086  -1.42359
C     0.35346   1.14535  -0.90130
C     1.42232   1.73740  -1.75912
C    -0.03365   1.73170   0.42526
O     0.55906   2.46141   1.17075
O    -1.26823   1.18584   0.72202
H     4.72058   0.86783   0.24236
H     4.92858  -0.71733   1.03118
H     4.66668   0.74271   2.02692
H     2.37645   0.53579   1.73835
H    -3.24504  -0.70016   1.63772
H    -3.99761   0.80227   1.07676
H    -4.72672  -0.78226   0.61015
H    -0.93098   0.20264  -2.28783
H     1.74567   0.99267  -2.49956
H     2.26283   2.03768  -1.14113
H     1.08148   2.64846  -2.32797
29

C     4.38451   0.23544   1.08789
N     2.94547   0.01799   1.07708
C     2.33875  -0.61636   0.05316
O     2.95958  -1.14343  -0.87802
C     0.85604  -0.51890   0.01234
C    -0.31058  -1.08213   0.20793
C    -0.87752  -2.30249   0.66479
N    -1.50283  -3.23069   0.99159
C    -1.50391   0.21951  -0.28512
C    -2.92826  -0.28853  -0.42334
C    -3.78730  -0.23911   0.79446
O    -3.24790  -0.77344  -1.48894
N    -0.86632   0.72857  -1.42114
C     0.34655   1.16057  -0.90647
C     1.42113   1.74013  -1.76256
C    -0.03237   1.73401   0.42262
O     0.56119   2.46005   1.17248
O    -1.26787   1.18557   0.71999
H     4.72157   0.86816   0.24255
H     4.92880  -0.71712   1.03132
H     4.66727   0.74300   2.02712
H     2.37684   0.53640   1.73811
H    -3.24479  -0.70063   1.63741
H    -3.99862   0.80163   1.07750
H    -4.72645  -0.78319   0.61014
H    -0.93268   0.20476  -2.28855
H     1.74495   0.99192  -2.49906
H     2.26218   2.03791  -1.14146
H     1.08385   2.64908  -2.33082
29

C     4.38664   0.23694   1.08831
N     2.94790   0.02146   1.07609
C     2.34264  -0.61438   0.05289
O     2.96236  -1.14086  -0.87923
C     0.86239  -0.53515   0.02279
C    -0.29405  -1.10374   0.21687
C    -0.88280  -2.30814   0.66531
N    -1.51218  -3.23408   0.99216
C    -1.51774   0.23924  -0.29158
C    -2.93035  -0.28480  -0.42493
C    -3.78777  -0.24001   0.79469
O    -3.24877  -0.77512  -1.48952
N    -0.86474   0.72627  -1.41869
C     0.33964   1.17580  -0.91164
C     1.41994   1.74287  -1.76600
C    -0.03110   1.73632   0.41998
O     0.56332   2.45868   1.17421
O    -1.26751   1.18530   0.71796
H     4.72255   0.86848   0.24275
H     4.92902  -0.71691   1.03147
H     4.66785   0.74330   2.02731
H     2.37722   0.53702   1.73787
H    -3.24454  -0.70110   1.63710
H    -3.99964   0.80098   1.07825
H    -4.72617  -0.78412   0.61013
H    -0.93438   0.20687  -2.28927
H     1.74423   0.99117  -2.49857
H     2.26153   2.03814  -1.14180
H     1.08622   2.64970  -2.33367
29

C     4.38877   0.23845   1.08872
N     2.95033   0.02493   1.07510
C     2.34654  -0.61239   0.05263
O     2.96515  -1.13830  -0.88044
C     0.86875  -0.55141   0.03324
C    -0.27753  -1.12536   0.22581
C    -0.88809  -2.31379   0.66583
N    -1.52153  -3.23746   0.99274
C    -1.53157   0.25896  -0.29804
C    -2.93244  -0.28108  -0.42651
C    -3.78825  -0.24092   0.79493
O    -3.24964  -0.77681  -1.49010
N    -0.86317   0.72397  -1.41625
C     0.33273   1.19102  -0.91681
C     1.41876   1.74560  -1.76943
C    -0.02982   1.73863   0.41734
O     0.56545   2.45732   1.17594
O    -1.26715   1.18503   0.71593
H     4.72354   0.86881   0.24295
H     4.92924  -0.71670   1.03162
H     4.66844   0.74359   2.02751
H     2.37761   0.53763   1.73763
H    -3.24429  -0.70156   1.63679
H    -4.00065   0.80034   1.07899
H    -4.72590  -0.78506   0.61012
H    -0.93608   0.20898  -2.28999
H     1.74350   0.99041  -2.49807
H     2.26087   2.03838  -1.14214
H     1.08859   2.65032  -2.33652
29

C     4.39090   0.23995   1.08914
N     2.95276   0.02840   1.07410
C     2.35043  -0.61041   0.05236
O     2.96793  -1.13573  -0.88165
C     0.87511  -0.56766   0.04369
C    -0.26100  -1.14697   0.23475
C    -0.89337  -2.31943   0.66634
N    -1.53088  -3.24084   0.99331
C    -1.54540   0.27869  -0.30451
C    -2.93454  -0.27735  -0.42809
C    -3.78872  -0.24182   0.79516
O    -3.25050  -0.77850  -1.49068
N    -0.86159   0.72168  -1.41380
C     0.32582   1.20624  -0.92198
C     1.41757   1.74834  -1.77287
C    -0.02855   1.74094   0.41470
O     0.56758   2.45595   1.17766
O    -1.26679   1.18476   0.71390
H     4.72453   0.86914   0.24315
H     4.92946  -0.71649   1.03177
H     4.66903   0.74388   2.02770
H     2.37800   0.53824   1.73739
H    -3.24404  -0.70203   1.63648
H    -4.00167   0.79969   1.07973
H    -4.72563  -0.78599   0.61011
H    -0.93778   0.21110  -2.29071
H     1.74278   0.98966  -2.49757
H     2.26022   2.03861  -1.14247
H     1.09096   2.65094  -2.33937
29

C     4.39302   0.24146   1.08956
N     2.95519   0.03186   1.07311
C     2.35432  -0.60843   0.05209
O     2.97071  -1.13316  -0.88285
C     0.88146  -0.58392   0.05415
C    -0.24448  -1.16858   0.24369
C    -0.89866  -2.32508   0.66686
N    -1.54024  -3.24423   0.99388
C    -1.55923   0.29841  -0.31097
C    -2.93663  -0.27363  -0.42968
C    -3.78919  -0.24272   0.79539
O    -3.25137  -0.78019  -1.49126
N    -0.86001   0.71938  -1.41135
C     0.31890   1.22146  -0.92715
C     1.41638   1.75107  -1.77631
C    -0.02727   1.74325   0.41206
O     0.56971   2.45459   1.17939
O    -1.26642   1.18450   0.71187
H     4.72552   0.86947   0.24335
H     4.92968  -0.71628   1.03192
H     4.66962   0.74417   2.02790
H     2.37839   0.53885   1.73715
H    -3.24379  -0.70250   1.63617
H    -4.00268   0.79905   1.08047
H    -4.72535  -0.78692   0.61010
H    -0.93947   0.21321  -2.29143
H     1.74206   0.98890  -2.49708
H     2.25957   2.03884  -1.14281
H     1.09332   2.65156  -2.34222
29

C     4.39515   0.24296   1.08997
N     2.95762   0.03533   1.07212
C     2.35822  -0.60644   0.05182
O     2.97349  -1.13059  -0.88406
C     0.88782  -0.60017   0.06460
C    -0.22796  -1.19019   0.25263
C    -0.90394  -2.33073   0.66738
N    -1.54959  -3.24761   0.99446
C    -1.57307   0.31814  -0.31743
C    -2.93872  -0.26990  -0.43126
C    -3.78966  -0.24362   0.79563
O    -3.25224  -0.78187  -1.49185
N    -0.85843   0.71709  -1.40891
C     0.31199   1.23669  -0.93232
C     1.41519   1.75381  -1.77975
C    -0.02600   1.74556   0.40942
O     0.57185   2.45322   1.18112
O    -1.26606   1.18423   0.70984
H     4.72651   0.86980   0.24354
H     4.92990  -0.71607   1.03206
H     4.67021   0.74446   2.02809
H     2.37878   0.53947   1.73691
H    -3.24354  -0.70296   1.63586
H    -4.00370   0.79840   1.08121
H    -4.72508  -0.78785   0.61009
H    -0.94117   0.21532  -2.29215
H     1.74133   0.98815  -2.49658
H     2.25892   2.03907  -1.14314
H     1.09569   2.65218  -2.34507
29

C     4.39728   0.24447   1.09039
N     2.96005   0.03880   1.07113
C     2.36211  -0.60446   0.05155
O     2.97628  -1.12803  -0.88527
C     0.89418  -0.61643   0.07505
C    -0.21143  -1.21181   0.26157
C    -0.90923  -2.33638   0.66790
N    -1.55894  -3.25100   0.99503
C    -1.58690   0.33787  -0.32389
C    -2.94082  -0.26618  -0.43284
C    -3.79014  -0.24453   0.79586
O    -3.25311  -0.78356  -1.49243
N    -0.85685   0.71479  -1.40646
C     0.30508   1.25191  -0.93749
C     1.41400   1.75654  -1.78318
C    -0.02472   1.74787   0.40678
O     0.57398   2.45186   1.18285
O    -1.26570   1.18396   0.70781
H     4.72749   0.87013   0.24374
H     4.93012  -0.71586   1.03221
H     4.67079   0.74476   2.02829
H     2.37916   0.54008   1.73667
H    -3.24329  -0.70343   1.63555
H    -4.00472   0.79776   1.08195
H    -4.72481  -0.78879   0.61008
H    -0.94287   0.21744  -2.29287
H     1.74061   0.98739  -2.49608
H     2.25826   2.03930  -1.14348
H     1.09806   2.65280  -2.34793
29

C     4.39941   0.24597   1.09080
N     2.96248   0.04226   1.07014
C     2.36601  -0.60247   0.05129
O     2.97906  -1.12546  -0.88648
C     0.90054  -0.63268   0.08551
C    -0.19491  -1.23342   0.27051
C    -0.91451  -2.34202   0.66842
N    -1.56829  -3.25438   0.99560
C    -1.60073   0.35759  -0.33035
C    -2.94291  -0.26245  -0.43443
C    -3.79061  -0.24543   0.79609
O    -3.25397  -0.78525  -1.49301
N    -0.85528   0.71250  -1.40402
C     0.29817   1.26713  -0.94266
C     1.41282   1.75928  -1.78662
C    -0.02345   1.75018   0.40414
O     0.57611   2.45049   1.18458
O    -1.26534   1.18369   0.70579
H     4.72848   0.87046   0.24394
H     4.93034  -0.71565   1.03236
H     4.67138   0.74505   2.02848
H     2.37955   0.54069   1.73644
H    -3.24304  -0.70390   1.63524
H    -4.00573   0.79712   1.08269
H    -4.72453  -0.78972   0.61007
H    -0.94457   0.21955  -2.29359
H     1.73989   0.98664  -2.49558
H     2.25761   2.03954  -1.14382
H     1.10043   2.65342  -2.35078
29

C     4.40154   0.24748   1.09122
N     2.96491   0.04573   1.06915
C     2.36990  -0.60049   0.05102
O     2.98184  -1.12289  -0.88769
C     0.90689  -0.64894   0.09596
C    -0.17838  -1.25503   0.27945
C    -0.91980  -2.34767   0.66893
N    -1.57764  -3.25776   0.99618
C    -1.61456   0.37732  -0.33681
C    -2.94500  -0.25873  -0.43601
C    -3.79108  -0.24633   0.79633
O    -3.25484  -0.78693  -1.49359
N    -0.85370   0.71020  -1.40157
C     0.29126   1.28236  -0.94783
C     1.41163   1.76202  -1.79006
C    -0.02217   1.75249   0.40149
O     0.57824   2.44913   1.18631
O    -1.26498   1.18343   0.70376
H     4.72947   0.87079   0.24414
H     4.93056  -0.71544   1.03251
H     4.67197   0.74534   2.02868
H     2.37994   0.54130   1.73620
H    -3.24279  -0.70436   1.63493
H    -4.00675   0.79647   1.08343
H    -4.72426  -0.79065   0.61006
H    -0.94627   0.22166  -2.29431
H     1.73917   0.98589  -2.49509
H     2.25696   2.03977  -1.14415
H     1.10280   2.65404  -2.35363
29

C     4.40366   0.24898   1.09163
N     2.96734   0.04920   1.06816
C     2.37379  -0.59850   0.05075
O     2.98462  -1.12032  -0.88890
C     0.91325  -0.66519   0.10641
C    -0.16186  -1.27664   0.28839
C    -0.92508  -2.35332   0.66945
N    -1.58699  -3.26115   0.99675
C    -1.62839   0.39704  -0.34327
C    -2.94709  -0.25500  -0.43760
C    -3.79155  -0.24724   0.79656
O    -3.25571  -0.78862  -1.49417
N    -0.85212   0.70790  -1.39912
C     0.28435   1.29758  -0.95300
C     1.41044   1.76475  -1.79349
C    -0.02090   1.75480   0.39885
O     0.58037   2.44776   1.18803
O    -1.26462   1.18316   0.70173
H     4.73046   0.87111   0.24434
H     4.93078  -0.71523   1.03265
H     4.67256   0.74563   2.02887
H     2.38033   0.54191   1.73596
H    -3.24254  -0.70483   1.63462
H    -4.00776   0.79583   1.08418
H    -4.72399  -0.79158   0.61005
H    -0.94797   0.22378  -2.29503
H     1.73844   0.98513  -2.49459
H     2.25630   2.04000  -1.14449
H     1.10517   2.65466  -2.35648
29

C     4.40579   0.25049   1.09205
N     2.96977   0.05266   1.06716
C     2.37769  -0.59652   0.05048
O     2.98740  -1.11776  -0.89010
C     0.91961  -0.68145   0.11687
C    -0.14533  -1.29826   0.29733
C    -0.93037  -2.35896   0.66997
N    -1.59635  -3.26453   0.99732
C    -1.64222   0.41677  -0.34973
C    -2.94919  -0.25128  -0.43918
C    -3.79202  -0.24814   0.79679
O    -3.25657  -0.79031  -1.49475
N    -0.85054   0.70561  -1.39668
C     0.27744   1.31280  -0.95817
C     1.40925   1.76749  -1.79693
C    -0.01962   1.75711   0.39621
O     0.58250   2.44640   1.18976
O    -1.26426   1.18289   0.69970
H     4.73145   0.87144   0.24454
H     4.93100  -0.71502   1.03280
H     4.67314   0.74593   2.02907
H     2.38071   0.54253   1.73572
H    -3.24229  -0.70530   1.63431
H    -4.00878   0.79518   1.08492
H    -4.72371  -0.79252   0.61004
H    -0.94967   0.22589  -2.29575
H     1.73772   0.98438  -2.49409
H     2.25565   2.04023  -1.14483
H     1.10754   2.65529  -2.35933
29

C     4.40792   0.25199   1.09247
N     2.97220   0.05613   1.06617
C     2.38158  -0.59453   0.05021
O     2.99019  -1.11519  -0.89131
C     0.92596  -0.69770   0.12732
C    -0.12881  -1.31987   0.30627
C    -0.93565  -2.36461   0.67049
N    -1.60570  -3.26792   0.99790
C    -1.65606   0.43649  -0.35619
C    -2.95128  -0.24755  -0.44076
C    -3.79250  -0.24904   0.79703
O    -3.25744  -0.79200  -1.49533
N    -0.84896   0.70331  -1.39423
C     0.27052   1.32803  -0.96334
C     1.40806   1.77022  -1.80037
C    -0.01835   1.75942   0.39357
O     0.58463   2.44503   1.19149
O    -1.26389   1.18262   0.69767
H     4.73243   0.87177   0.24473
H     4.93122  -0.71481   1.03295
H     4.67373   0.74622   2.02926
H     2.38110   0.54314   1.73548
H    -3.24204  -0.70577   1.63400
H    -4.00979   0.79454   1.08566
H    -4.72344  -0.79345   0.61003
H    -0.95136   0.22800  -2.29647
H     1.73700   0.98362  -2.49359
H     2.25500   2.04046  -1.14516
H     1.10991   2.65591  -2.36218
29

C     4.41005   0.25350   1.09288
N     2.97463   0.05960   1.06518
C     2.38548  -0.59255   0.04994
O     2.99297  -1.11262  -0.89252
C     0.93232  -0.71396   0.13777
C    -0.11228  -1.34148   0.31521
C    -0.94094  -2.37026   0.67101
N    -1.61505  -3.27130   0.99847
C    -1.66989   0.45622  -0.36265
C    -2.95337  -0.24382  -0.44235
C    -3.79297  -0.24995   0.79726
O    -3.25831  -0.79368  -1.49591
N    -0.84738   0.70102  -1.39178
C     0.26361   1.34325  -0.96851
C     1.40688   1.77296  -1.80381
C    -0.01707   1.76173   0.39093
O     0.58677   2.44367   1.19322
O    -1.26353   1.18235   0.69564
H     4.73342   0.87210   0.24493
H     4.93144  -0.71460   1.03310
H     4.67432   0.74651   2.02946
H     2.38149   0.54375   1.73524
H    -3.24179  -0.70623   1.63369
H    -4.01081   0.79389   1.08640
H    -4.72316  -0.79438   0.61002
H    -0.95306   0.23012  -2.29719
H     1.73627   0.98287  -2.49310
H     2.25435   2.04070  -1.14550
H     1.11228   2.65653  -2.36503
29

C     4.41218   0.25501   1.09330
N     2.97706   0.06307   1.06419
C     2.38937  -0.59056   0.04968
O     2.99575  -1.11005  -0.89373
C     0.93868  -0.73021   0.14822
C    -0.09576  -1.36309   0.32415
C    -0.94622  -2.37591   0.67152
N    -1.62440  -3.27468   0.99904
C    -1.68372   0.47595  -0.36911
C    -2.95547  -0.24010  -0.44393
C    -3.79344  -0.25085   0.79750
O    -3.25917  -0.79537  -1.49649
N    -0.84581   0.69872  -1.38934
C     0.25670   1.35847  -0.97368
C     1.40569   1.77569  -1.80724
C    -0.01580   1.76404   0.38829
O     0.58890   2.44230   1.19495
O    -1.26317   1.18209   0.69361
H     4.73441   0.87243   0.24513
H     4.93166  -0.71439   1.03325
H     4.67491   0.74680   2.02965
H     2.38188   0.54436   1.73500
H    -3.24154  -0.70670   1.63338
H    -4.01182   0.79325   1.08714
H    -4.72289  -0.79531   0.61001
H    -0.95476   0.23223  -2.29791
H     1.73555   0.98211  -2.49260
H     2.25369   2.04093  -1.14584
H     1.11465   2.65715  -2.36788
29

C     4.41430   0.25651   1.09371
N     2.97949   0.06653   1.06320
C     2.39326  -0.58858   0.04941
O     2.99853  -1.10749  -0.89494
C     0.94503  -0.74647   0.15868
C    -0.07924  -1.38471   0.33309
C    -0.95151  -2.38155   0.67204
N    -1.63375  -3.27807   0.99962
C    -1.69755   0.49567  -0.37557
C    -2.95756  -0.23637  -0.44551
C    -3.79391  -0.25175   0.79773
O    -3.26004  -0.79706  -1.49707
N    -0.84423   0.69643  -1.38689
C     0.24979   1.37370  -0.97885
C     1.40450   1.77843  -1.81068
C    -0.01452   1.76635   0.38565
O     0.59103   2.44094   1.19668
O    -1.26281   1.18182   0.69158
H     4.73540   0.87276   0.24533
H     4.93188  -0.71418   1.03339
H     4.67549   0.74710   2.02985
H     2.38227   0.54498   1.73476
H    -3.24128  -0.70717   1.63307
H    -4.01284   0.79261   1.08788
H    -4.72262  -0.79625   0.61000
H    -0.95646   0.23434  -2.29863
H     1.73483   0.98136  -2.49210
H     2.25304   2.04116  -1.14617
H     1.11702   2.65777  -2.37073
29

C     4.41643   0.25802   1.09413
N     2.98192   0.07000   1.06221
C     2.39716  -0.58659   0.04914
O     3.00132  -1.10492  -0.89615
C     0.95139  -0.76273   0.16913
C    -0.06271  -1.40632   0.34203
C    -0.95679  -2.38720   0.67256
N    -1.64310  -3.28145   1.00019
C    -1.71138   0.51540  -0.38203
C    -2.95965  -0.23265  -0.44710
C    -3.79438  -0.25265   0.79796
O    -3.26091  -0.79874  -1.49765
N    -0.84265   0.69413  -1.38445
C     0.24288   1.38892  -0.98402
C     1.40331   1.78116  -1.81412
C    -0.01325   1.76866   0.38301
O     0.59316   2.43957   1.19841
O    -1.26245   1.18155   0.68955
H     4.73638   0.87309   0.24553
H     4.93210  -0.71397   1.03354
H     4.67608   0.74739   2.03004
H     2.38265   0.54559   1.73452
H    -3.24103  -0.70763   1.63276
H    -4.01385   0.79196   1.08862
H    -4.72234  -0.79718   0.60999
H    -0.95816   0.23646  -2.29935
H     1.73411   0.98061  -2.49160
H     2.25239   2.04139  -1.14651
H     1.11939   2.65839  -2.37358
29

C     4.41856   0.25952   1.09455
N     2.98435   0.07347   1.06121
C     2.40105  -0.58461   0.04887
O     3.00410  -1.10235  -0.89735
C     0.95775  -0.77898   0.17958
C    -0.04619  -1.42793   0.35097
C    -0.96208  -2.39285   0.67308
N    -1.65246  -3.28484   1.00076
C    -1.72522   0.53512  -0.38849
C    -2.96175  -0.22892  -0.44868
C    -3.79486  -0.25356   0.79820
O    -3.26178  -0.80043  -1.49823
N    -0.84107   0.69183  -1.38200
C     0.23597   1.40414  -0.98919
C     1.40212   1.78390  -1.81756
C    -0.01197   1.77097   0.38037
O     0.59529   2.43821   1.20013
O    -1.26209   1.18128   0.68753
H     4.73737   0.87341   0.24572
H     4.93232  -0.71376   1.03369
H     4.67667   0.74768   2.03024
H     2.38304   0.54620   1.73428
H    -3.24078  -0.70810   1.63245
H    -4.01487   0.79132   1.08936
H    -4.72207  -0.79811   0.60998
H    -0.95986   0.23857  -2.30007
H     1.73338   0.97985  -2.49111
H     2.25173   2.04163  -1.14685
H     1.12176   2.65901  -2.37643
