13

C -3.278363116 0.738216276 0.216035796
C -1.174359283 0.077154078 -1.577302769
O 0.506883525 1.763689631 -2.135080247
C 2.528853383 -1.085598034 -1.225671980
O 3.175042907 -2.457689151 -2.856804259
N 3.846099790 0.219152521 0.610570001
H -4.524923467 2.052466050 -0.780030227
H -2.547088711 1.700884168 1.883275507
H -4.376409097 -0.915456033 0.770169202
H 0.256801554 -1.716362064 -0.274219670
H -1.692607262 -1.308918743 -3.045769502
H 4.496734441 -0.932971885 1.983363623
H 2.938993947 1.775848828 1.223029671

