15

C 3.506553460 -0.057851679 -0.112290947
C 0.688242620 -0.137914367 -0.193576647
C -1.181654401 -0.247365924 2.061016211
N -2.840193245 -0.089615405 -0.213805144
C -1.120282521 1.888865638 -1.263381238
C -0.998117926 -2.101804343 -1.672964541
H 4.252933863 -0.008215131 -2.034247182
H 4.249797674 -1.751765648 0.801950181
H 4.212168616 1.591461277 0.909563829
H -1.335672088 -2.040578388 3.058695625
H -1.350629553 1.378391879 3.343231367
H -1.271978604 3.704815702 -0.285768296
H -1.224014067 2.018292923 -3.310643852
H -4.755301661 -0.002376501 -0.221416451
H -1.160248793 -3.821094802 -0.487765752

