13

C 2.684425483 -1.203171918 0.105853500
C 0.103063641 -0.002242614 0.070915223
C -0.238950464 2.659157237 0.957645000
N -0.508159676 1.521562368 -2.123937288
C -2.043625987 -1.720094216 0.768821279
O -4.136144764 -1.561045682 -0.103978249
H 2.802534027 -2.775874489 -1.226080067
H 4.101544691 0.202675035 -0.391624045
H 3.115560583 -1.901078390 1.998977768
H -2.209315889 2.970521552 1.509921220
H 0.285865372 3.452210115 -1.437698911
H -2.395901286 1.445376283 -2.483408796
H -1.584241427 -3.169459465 2.204923277

