16

C -2.879725711 -1.853779887 0.036572626
O -2.171881000 1.304779412 1.441041459
C -0.575467393 1.978566307 -0.525599921
C 1.073673919 3.743913474 0.656440041
C 0.553982246 -0.487690824 -1.234035322
C 2.508046459 -1.779798450 0.361765617
H -4.160926462 -1.918784254 1.646585665
H -1.844311792 -3.639822483 0.044272163
H -3.951562004 -1.606650234 -1.697129055
H -1.562179385 2.795581744 -2.162168412
H 2.175664232 3.125854432 2.264242309
H 1.278635542 5.681846644 0.030279951
H 0.655964907 -0.952845095 -3.241850432
H 2.373875602 -3.824466376 0.097732043
H 2.235125995 -1.367020962 2.362095333
H 4.425831785 -1.246316255 -0.180654662

