14

C 6.344616115 1.102979584 0.611035081
C 3.872992483 0.193333231 -0.189077662
C 1.829254189 -0.562060107 -0.841030397
C -0.535254588 -1.512180067 -1.641058878
N -2.625793895 -0.299584027 -1.157925412
C -5.076682129 0.061694342 -1.207843302
H -6.415476309 -0.333802489 -2.689593241
C -3.469521008 2.193221753 -0.375475750
H -2.874262399 3.702559747 -1.647714229
H -3.326378505 2.630465261 1.625709086
H -0.689782312 -3.308290954 -2.603436470
H 6.357407860 1.531357876 2.628943974
H 6.884887189 2.810373764 -0.413417217
H 7.783091420 -0.332114585 0.259099990

