12

C 1.332990226 -1.102115885 -0.052694182
C 0.020469702 1.419068347 -0.320709257
C -2.329412576 2.011565782 1.136969634
O -1.374497947 -2.872900814 -3.243716367
C 0.336095369 -3.133425487 -1.777631634
C -0.320335015 3.154788293 1.891101316
H 1.182966532 -1.818366079 1.886696421
H 3.368658935 -0.946560887 -0.423117881
H 0.224284942 2.241758102 -2.198095054
H -4.322237793 1.649668999 1.305886338
H 1.315562661 -4.985014199 -1.619155856
H 0.588078764 4.457780478 3.160334280

