12

C 1.557678284 -0.514589450 -1.042762497
C 1.132781869 2.237969277 -0.727806436
C -1.001738509 2.722411000 0.600318331
O -1.440857343 -3.930482109 -0.055772848
C -0.495957299 -1.583623336 0.733251777
C -2.383781244 0.443436103 1.108204318
H 3.506258946 -1.088755030 -0.673315182
H 1.088984367 -1.133999212 -2.956886800
H 2.388519656 3.660363107 -1.512571070
H -1.700589484 4.602623960 1.007656809
H 0.350276668 -1.741154912 2.645731470
H -3.220504483 -3.904572131 0.312344441

