13

C -0.798365219 0.195973934 2.573180878
C -0.485889291 -1.867877621 -1.187822939
N -1.271095648 -0.183796010 -2.892332320
C 1.385044168 -0.140978539 -1.890015423
C 1.300697074 1.627587965 0.448061510
O 3.366082672 2.043047164 1.518258956
H -0.618808186 1.734449294 3.930501800
H 0.030099766 -1.475955415 3.452930100
H -2.819135574 -0.058606964 2.214118760
H -1.072693529 -3.686139576 -0.493245107
H -1.830658880 -0.702782078 -4.642761762
H 3.048176484 -0.466495920 -3.029474677
H -0.059383623 3.141915158 -0.174504359

