12

N 2.874186905 2.770468625 -0.543070042
C 3.565273052 0.821643773 0.420878971
C 1.913569838 -1.363014081 0.582567283
O 0.180551653 -1.266302377 2.923786943
C -1.772142565 -1.305901588 1.427055709
C -0.716669808 2.041886589 -1.239765236
C -0.611121555 -0.779761432 -0.972037475
H 2.692698458 -3.264714323 0.523728884
H -3.664969258 -1.616634602 2.150333020
H -1.623676100 2.724672322 -2.954509903
H -1.287746271 3.100733471 0.422596524
H -1.184604169 -1.799445498 -2.658575485

