12

N 3.841990713 -0.154996093 -0.034505209
C 1.458057347 0.491221154 0.364815294
C -0.360702702 2.326252746 0.414707655
C -2.693049588 1.079820121 -0.290701445
C -2.380146752 -1.426548507 -0.606006841
N 0.216727908 -1.982894139 0.090860149
H 2.419267277 -2.292904957 -0.762436121
H 5.236936668 1.135383890 0.021460221
H -0.047949287 4.336054601 0.468947613
H -4.467335727 2.048413759 -0.598168238
H -3.705859171 -2.921175323 -0.984789196
H 0.257516607 -2.857414074 1.806221433

