15

C -3.374139444 -0.632408243 0.583323892
C -1.439054468 1.309579127 -0.147352094
O -0.655898597 2.916558420 1.980424021
C 1.790749054 2.574200082 1.707390948
C 2.239716045 -1.992379789 0.147198591
C 1.387164063 0.664158495 -0.461555156
O 2.342285334 1.532781143 -2.786358595
H -2.741353596 -1.790293630 2.165099699
H -5.142647291 0.284058869 1.113070457
H -3.749916945 -1.867859159 -1.025621018
H -2.106625677 2.532098553 -1.665138713
H 1.559776995 -2.621537892 1.989631693
H 4.300785470 -2.049465600 0.191668949
H 1.576569517 -3.307554414 -1.297001375
H 4.042447191 2.113285827 -2.511554528

