15

C -3.440656178 -0.588535492 -0.255367478
C -1.350114981 1.302880709 0.112074932
O -0.517652942 1.602185397 2.707676711
C 2.029078441 1.675078805 2.033650728
C 2.388999911 -1.569909593 0.628717967
C 1.390343112 0.743909643 -0.607230628
O 2.505792545 1.659082443 -2.781825898
H -2.949703611 -2.440369414 0.501030986
H -5.160054881 0.053223040 0.683877466
H -3.848701622 -0.783407413 -2.270135779
H -1.892633279 3.153064674 -0.629162184
H 3.180469766 -0.373941349 2.732921222
H 4.236753121 -2.145620572 -0.046680468
H 1.111397048 -3.036616424 1.264171786
H 2.346543132 0.414201095 -4.090498240

