12

C 2.824484594 -0.856280034 -0.054324581
N 1.134112539 1.267866503 -0.347173832
C -1.505934578 1.019846922 -0.083522720
N -2.398861806 -1.375897270 -0.260737627
C -3.252927043 2.959304138 0.291048739
O -4.583515862 -2.131644006 -0.294980031
H 2.513793135 -1.941121573 1.694036292
H 4.760041774 -0.161699046 -0.028675611
H 2.683702701 -2.149653814 -1.664187123
H 1.739998399 2.850936130 0.510041900
H -1.047976800 -2.761134436 -0.437405212
H -2.181823340 4.749774155 0.334727566

