12

C 2.971096218 -0.839415948 -0.046640217
N 1.266746387 1.297870025 -0.175202046
C -1.306998838 0.884505909 0.030288700
N -2.343742407 -1.351991441 -0.291433336
C -3.140556407 2.728338485 0.709210832
O -4.738580986 -1.371429391 -0.668210862
H 2.787453332 -1.941550163 1.701563505
H 4.905652939 -0.155104166 -0.180297768
H 2.646085774 -2.090513815 -1.657842140
H 1.855905091 2.814947789 0.807961985
H -1.391956975 -3.019665864 -0.249626188
H -2.826012249 4.514308101 -0.320926632

