17

C -3.661034206 -2.898484002 0.971383800
C -1.465761779 2.677310229 0.657422453
O -1.134424646 -2.748067868 1.863870759
C 0.605962508 -1.563948452 0.445835034
C 0.370766080 -0.673434745 -2.113473326
C 0.745834121 1.549011093 -0.199977584
C 3.393531908 2.639094449 -0.074936164
H -4.461565542 -1.004093202 0.805454886
H -3.736267415 -3.878561978 -0.847602468
H -4.679418461 -3.999589960 2.376901507
H -0.961013229 4.453428892 1.634432440
H 2.480548808 -2.034971986 1.122874016
H 1.957221227 -0.952985389 -3.375471379
H -1.466437677 -0.687207428 -3.001446467
H 3.665557964 4.031631797 -1.575157117
H 3.712151392 3.575276998 1.733395734
H 4.856936026 1.198624047 -0.314616345

