13

C 3.643034016 0.384315303 0.083156812
C 0.814330740 0.209783032 0.278645748
C -0.658980645 -1.801758712 -0.735795442
N -3.036942515 -1.015678546 -0.719100014
C -3.236166420 1.405269416 0.221449011
C -0.895443360 2.440782281 0.793420505
H 4.331344931 1.830621746 1.375224207
H 4.571169752 -1.405916987 0.521235674
H 4.185332691 0.943781818 -1.825125365
H -0.135688950 -3.651747430 -1.419073412
H -4.512164112 -2.116256137 -1.218188476
H -5.090636491 2.250912162 0.337356629
H 0.146106745 0.358770382 2.395341020

