14

C -3.386483267 0.119884414 0.541519351
N -0.781508862 -0.551001487 0.089243582
C 0.361390865 -2.708414233 0.455783479
C 3.040950700 -2.820872496 -0.181602681
C 3.410568488 -0.401650516 -0.967267958
C 1.083473264 1.241254756 -0.938502471
O 1.153625019 3.480079890 0.447881910
H -4.394991833 0.371829655 -1.240048072
H -3.455477035 1.885392359 1.601215042
H -4.298075490 -1.371412440 1.626405224
H -0.767809576 -4.261919813 1.197023713
H 0.471536727 1.729841858 -2.855368313
H 5.161094589 0.396238322 -1.683409303
H 2.281092770 3.227839077 1.850011414

