14

C -3.366879002 0.142477810 0.804212655
N -0.764327718 -0.511294713 0.281430581
C 0.240693509 -2.907404492 0.008244818
C 2.751719197 -2.976303547 -0.693624843
C 3.328785015 -0.354346325 -0.845333871
C 1.090202144 1.170004806 -0.270200714
O 0.787877882 3.668517823 0.211738937
H -4.483842333 0.217004092 -0.928079989
H -3.441046558 1.976730438 1.732332593
H -4.163498304 -1.281500102 2.057202517
H -1.052660845 -4.470613551 0.300171184
H 1.741325063 0.697513484 -2.559330772
H 5.106845125 0.548302164 -1.322926792
H 2.186216708 4.251894533 1.210451861

