15

C -4.467524378 0.019430183 -0.754571213
O -2.418725247 -0.756637118 0.841819434
C -0.263875309 0.408907858 0.550929923
O -0.203838200 2.652451222 -0.473445388
C 1.900664842 -0.517232931 2.184883109
C 3.589908561 -1.186225365 -0.072579278
O 1.885793888 -0.668087198 -2.075082727
H -3.946615873 -0.267345526 -2.726210502
H -6.042417236 -1.194497697 -0.245127997
H -4.927424171 1.995846057 -0.427792628
H 2.568625938 0.992519045 3.416401978
H 1.334260557 -2.139796323 3.314473684
H 5.319530059 -0.057251955 -0.199627096
H 4.123636685 -3.181258821 -0.064975984
H 1.207558162 1.806068781 -1.817046766

