11

O 3.554678454 -2.298429061 -0.756666712
N 2.502684626 -0.402016651 0.795058369
C -0.012085441 0.001386020 0.120646257
C -2.039081838 1.723266840 1.123440650
O -3.625625784 0.889457369 -0.957989024
C -1.591521881 -0.611787419 -1.730687341
H 4.880091710 -1.434181092 -1.644848988
H -1.657307783 3.743376659 0.987416444
H -2.891490541 1.245149841 2.938796414
H 2.648953642 -1.055744651 2.589782159
H -1.657128580 -1.740896681 -3.425689169

