9

C -2.742317394 0.338004881 -0.693329763
C -1.895040620 0.222007425 1.999958744
C -1.978208469 -1.817226479 3.447162108
H -1.329389825 -1.781018174 5.388301067
H -2.699885767 -3.602223264 2.739930840
H -1.154965345 1.968328999 2.792300820
H -4.237201912 1.742272893 -0.938976981
H -1.186746948 0.898809303 -1.931476260
H -3.455405566 -1.485306819 -1.339133499

