14

C 1.745688459 2.951340719 -0.522377522
O 0.401882272 2.299302738 1.398122774
C -0.802228783 0.153850692 1.728204146
C -3.405680579 -0.064924206 2.619472969
H -4.611467576 1.598694506 2.619266025
H -3.856571368 -1.440123619 4.070512591
C -2.601904620 -1.037216605 -0.017615044
C -3.571220890 0.346945402 -2.314996214
H -2.384974719 -0.002558462 -3.969703979
H -5.486281061 -0.269083810 -2.774580329
H -3.624926094 2.386025747 -2.008925721
H -2.494115039 -3.077699051 -0.224226228
H 1.963691366 1.658939599 -2.090482030
H 2.795506306 4.682217599 -0.305231077

