11

O 2.611220857 -2.151955577 -0.125026340
C -0.112501727 -0.323529975 1.286694752
C -0.263498630 2.254194768 0.122181981
O -1.917871857 1.340906345 -1.813481874
C -1.780138242 -1.130050875 -0.651304786
H 4.000276158 -1.238617303 -0.876464123
H 0.253948596 -0.889562684 3.210469111
H -1.245788549 3.574433367 1.377155866
H 1.464673864 3.117016183 -0.600014765
H -3.478580147 -2.265410613 -0.551537300
H 0.588264826 -2.236204499 -1.289456662

