10

O -3.382354121 -1.863613624 -0.278325156
C -1.017230143 -0.909823855 -0.101500535
C -0.691115400 1.812528223 -0.078600380
N 1.645581276 2.451242048 0.272221511
C 3.589133887 1.357428656 0.839086757
N 0.939516970 -2.299447548 0.067418776
H -4.603374729 -0.521231592 -0.259681194
H -2.180041782 3.195859279 -0.255356197
H 5.184489852 0.966577111 -0.385234295
H 0.516461904 -4.164704705 0.177793711

