11

C -0.713401564 1.334130071 -1.553524326
H -2.084303665 -0.007683759 -2.302470373
H -0.250808420 2.887470168 -2.811025644
C -0.647462840 1.940023661 1.192848363
O -0.548309326 4.246446150 2.367635575
H -2.232510784 4.713837895 2.849546898
C -0.166652812 -0.624488249 2.244797632
H 0.742197286 -0.666016379 4.083328638
H -1.482202094 -2.168821552 1.891514807
C 1.388161234 0.428905129 0.120719862
H 3.389522986 0.773818678 0.009586146

