14

C -1.822247803 0.619654632 -1.490448008
C -0.445236445 1.291967106 0.800944374
O -0.264201665 3.714023128 1.847943581
C -0.182026376 -0.912205949 2.624560585
C 1.688871217 -0.404889356 0.650143398
O 1.668737413 -3.086768093 -2.170073250
H -3.826280834 0.194295234 -1.341265847
H 0.021032142 -2.124665229 -2.409371291
H -1.235719295 1.657431163 -3.166220626
H -0.794281068 4.871664835 0.556856161
H 0.519605974 -0.521033492 4.517656223
H -1.497979927 -2.471906259 2.506094731
H 3.725163932 -0.375209242 0.645019557
H 2.744728741 -2.622084250 -3.566470855

