11

C -4.238458788 1.050935072 -0.590826917
C 2.245351246 -0.377205794 -0.205547079
C 4.416232127 -1.152473458 1.208123473
O 3.907281091 -2.030360866 -1.329003735
C 0.154266318 0.780735662 -0.673991288
N -1.730875595 2.035728992 -1.141938008
H -5.302480156 0.966149466 -2.353783788
H -5.203151521 2.383658544 0.650289115
H -4.201072824 -0.818312242 0.289517116
H 6.024923890 0.110180501 1.370592866
H 4.221160103 -2.584600304 2.664129522

