11

C 4.954136962 -1.269746252 0.501984164
C 2.804164199 -0.624268795 0.191338568
C 0.222230999 0.065178600 -0.150225139
C -1.827180215 -1.708462669 0.479916963
N -4.131200257 -1.075152630 0.382067568
N -0.911594944 4.300911383 -2.033745592
C -0.363991071 2.342720651 -1.028494479
H 6.866165993 -1.832132148 0.769588470
H -1.161229069 -3.587605911 1.030905486
H -5.268928863 -2.545860578 0.854946473
H -1.269191239 5.860787097 -0.979551518

