13

C 1.580196223 1.450475293 1.937585291
O 1.959541300 -1.245366555 1.945049217
C -0.092815618 -2.012390213 0.478296353
C -1.629235069 -1.208861959 -3.821383684
O -2.175043211 -0.566181147 1.324110365
C -0.750859451 1.498554782 0.233489817
C 0.131309358 -0.254564515 -1.984205741
H 3.235165866 2.400010306 1.158299257
H 1.182952850 2.113722071 3.846691974
H -0.312761106 -4.050166288 0.443277857
H -3.528682815 -1.081383681 -2.966592490
H -1.802012427 3.237355700 -0.054663635
H 2.070087954 0.001285694 -2.633664208

