15

C -3.723682047 0.322352468 0.168756190
C -1.151919881 -0.545451588 -0.620270381
C 0.971200591 1.213125030 -1.253375705
C -0.045348098 4.310970716 -1.522676758
N 2.013387138 4.494723244 -0.672641400
N 0.948354482 -0.112240321 1.051207230
C 2.853760043 -2.033141201 1.458278804
H -3.594598106 2.058653165 1.265425714
H -4.899664227 0.679297148 -1.487154367
H -4.637150749 -1.122670492 1.323131827
H -1.096658601 -2.274692740 -1.745335194
H 2.263221441 0.696844634 -2.748751590
H 3.229746359 -3.165555140 -0.240937738
H 2.225961919 -3.292946945 2.961833499
H 4.603669602 -1.123855275 2.054134622

