14

C -2.217507492 -1.270871829 0.827374310
C -1.374274657 0.777010237 -0.921166010
C 0.468586808 2.757832839 -0.036366721
O 2.447158028 1.777837236 1.536406072
C 3.501213850 -0.446222201 0.968333801
N 2.309608435 -2.140711952 -0.454229821
C -0.290413130 -1.811900456 -1.200142876
H -1.558630139 -1.228048745 2.764332080
H -4.091659118 -2.045489144 0.572733904
H -2.702720734 1.429544649 -2.337110904
H -0.452642414 4.219433479 1.086163970
H 1.352629507 3.653987379 -1.675366497
H 3.394494156 -2.760911505 1.584423786
H -0.843224653 -2.996427524 -2.770650133

