16

C 4.711659343 -0.478824682 0.239138397
C 1.945297301 0.000691696 0.127038029
C -0.060638193 -1.443466866 -0.347976852
C -2.401216310 0.029430311 -0.188190417
C -4.951669433 -1.115477193 -0.621050327
C -2.010111222 2.491271984 0.394476795
N 0.915702774 2.522880223 0.617660914
H 5.488111638 -0.107841946 2.119500891
H 5.092580017 -2.450598993 -0.213646729
H 5.760852049 0.687589171 -1.107418400
H 0.053268167 -3.439670516 -0.788870385
H -6.404304891 0.326215333 -0.398428496
H -5.341930891 -2.635621208 0.724867194
H -5.119128534 -1.918359860 -2.518834036
H 1.547927468 3.848416160 -0.624914383
H 1.326946523 3.173151669 2.380915172

