14

C 3.965262310 -0.217168007 -0.007417194
C 1.292168325 0.811958133 -0.265343343
C -0.707632022 -1.240781777 0.026527881
C -3.320374033 -0.262145189 -0.124417829
O -5.371602105 -1.468576620 -0.258523680
C -4.680694574 1.903590214 -0.397396875
H 4.345964381 -1.667593656 -1.426296285
H 5.361541940 1.278794071 -0.253053471
H 4.266085734 -1.062964917 1.851871282
H 0.965968544 2.280309724 1.152168626
H -0.548039133 -2.193963092 1.858336791
H -0.503229173 -2.722871678 -1.401717638
H -5.475608624 2.763353409 1.293801048
H 1.059269671 1.720474770 -2.105274560

