16

C 4.323878566 0.379787878 0.674758007
C 0.799265882 -0.850442934 -0.560788360
O 1.307283469 0.318302350 2.059784109
C -1.766400859 -0.081605498 -1.476052453
C -3.872310292 -0.270025158 0.475263758
O -1.810153310 2.450048364 -2.395183719
H 4.354505244 2.108367248 -0.403761189
H 5.126690443 -1.198712637 -0.345335657
H 5.200433320 0.601606198 2.537054341
H 0.867537737 -2.899216970 -0.289966984
H 0.989676613 -0.853646285 3.431782742
H -2.191112686 -1.391458220 -3.038502031
H -4.120034754 -2.219999229 1.106722697
H -3.462060085 0.930168363 2.101536682
H -5.650273383 0.379206693 -0.340733947
H -0.214867492 2.704472548 -3.220935133

