11

C -2.959835208 -0.382653478 -0.061271365
C 0.118733212 0.139376089 -0.019727418
C -0.696560665 2.423515306 0.345852686
O 4.902797582 1.217435325 0.111444576
C 4.158781302 -0.842047051 -0.524642415
N 1.647694179 -1.640147520 -0.591456687
H -3.098532677 -1.926696481 1.290283266
H -3.322027562 -0.952447837 -1.997131789
H -4.318052068 1.083789170 0.442940238
H -1.154614366 3.415412196 2.066965862
H 5.464822899 -2.341075342 -1.130228849

