9

O -2.261625038 1.482141963 -1.043491459
C -1.739097340 0.016816918 1.086111435
C 0.690347170 -1.435438100 0.863924051
C 2.110946800 -3.408656406 0.792073811
C 3.195843273 -0.228955910 0.510988407
N 4.833942255 1.190280433 0.225879738
H -1.114854963 2.887305497 -1.115608964
H -3.247438164 -1.372716899 1.269255716
H -1.670287782 1.137161120 2.823313115

