15

O -0.857169962 2.169577821 -0.725589976
C -3.169896351 0.713277957 -0.452129674
C -1.903631769 -1.599072168 0.710877268
C 0.702673249 -0.383875582 0.312236292
O 1.849774253 -0.730079588 -1.868745497
C 2.384570639 0.083725280 2.559902811
O 4.646370156 1.233150741 1.862273733
H 0.407446873 1.159797639 -2.314703212
H -4.085925670 0.434029972 -2.275718956
H -4.445162890 1.716573033 0.811085533
H -2.084728683 -3.359924054 -0.333531597
H -2.373724613 -1.902276930 2.693291719
H 1.412380191 1.254774292 3.953487843
H 2.691315708 -1.792062641 3.417123702
H 4.933372198 0.737093155 0.126255191

