15

C 4.320949377 -1.242912537 0.104170038
C 2.799188305 0.965415251 1.088468982
C -0.748510295 1.481704170 -1.462745795
O 0.158463608 0.557320070 0.697353632
N -3.174872983 0.879546757 -1.622687584
C -4.651494205 -0.560138445 0.198579904
H 4.067718367 -1.426687855 -1.934157535
H 6.326916600 -0.956583144 0.492926197
H 3.725106466 -3.001329417 1.001809506
H 3.035920079 1.191890216 3.125068551
H 3.330821516 2.721042064 0.146528476
H -4.055470088 1.508612849 -3.178728704
H -3.849142968 -2.439552296 0.465080175
H -4.687473135 0.389614265 2.027228796
H -6.577991282 -0.746227052 -0.498537871

