14

O 3.941704701 -1.890364021 0.184369277
C 2.406908544 -0.094499175 -1.043760008
C -0.082392361 0.224759660 -0.184287150
O 0.578038668 2.993253370 1.796092028
C -2.187028667 -1.220984987 0.919904316
C -2.602853565 0.570738334 -1.289374705
H 3.569217686 -3.539278566 -0.472441150
H 2.791223412 0.210728670 -3.038747355
H 2.285466636 2.220101066 0.517748468
H 0.887506700 2.413672629 3.498145180
H -2.965610173 -0.663159246 2.723057853
H -2.174727268 -3.239947554 0.576715689
H -2.900378792 -0.211634964 -3.157311229
H -3.608831788 2.302496734 -0.894222937

