17

C 3.695756298 1.185156970 -0.207164515
C 1.763686135 -0.900202239 -0.551562868
C 0.226904386 -1.571760769 1.834207332
C -2.124743275 -0.119668475 0.958123157
O -4.379073914 -1.440427317 1.058253130
C -1.517507375 2.404165020 -2.063069266
C -0.710576310 -0.129426567 -1.875803756
H 5.233689798 0.549047397 1.013971254
H 2.841084157 2.867413654 0.621721067
H 4.496685838 1.750242699 -2.022322802
H 2.636964671 -2.547261054 -1.429502753
H 0.992904058 -0.962259068 3.648042433
H -0.238362135 -3.575976159 1.927568382
H -5.764879868 -0.279335669 1.160196655
H -3.469807018 2.328290116 -2.808882808
H -2.257461329 1.747384375 1.819857545
H -1.607734144 -1.669404638 -2.916786377

