17

C 3.892883457 0.979873300 -0.338295237
C 1.715888971 -0.870137188 -0.471809698
C 0.110731601 -1.255869823 1.952803576
C -2.287114817 -0.340414376 0.571491353
O -4.482235631 -1.744687679 0.393999242
C -1.600733086 2.571313186 -1.319133318
C -0.705387878 -0.000507599 -1.846293510
H 5.337571066 0.322343190 0.981774308
H 3.227102802 2.832154898 0.275453944
H 4.779251313 1.205414116 -2.188715663
H 2.363409259 -2.685481084 -1.206670822
H 0.649654167 -0.140661745 3.600067162
H -0.092215347 -3.231824301 2.492571794
H -5.578011674 -1.332729633 1.777778277
H -3.453556752 2.712143438 -2.261217595
H -2.629831050 1.748919570 1.215877360
H -1.373112872 -1.020433569 -3.497929449

