28

C    -1.43758   1.70166   1.40575
C    -0.84720   1.43842  -0.02793
C     0.56123   1.75669  -0.15505
C     1.03329   2.29132  -1.54692
C     1.42292   0.62171   0.36520
C     2.49940  -0.07074  -0.40723
C    -0.34886  -0.85202   0.23172
C    -0.54444  -1.12699   1.63529
N    -0.59560  -1.36330   2.77560
C     0.10401  -2.01659  -0.47057
N     0.56223  -2.92741  -1.03622
N    -1.21819   0.03214  -0.44848
C    -1.31911  -0.17184  -1.88798
H    -2.45501   1.30033   1.64073
H    -1.47175   2.78424   1.53245
H    -0.74803   1.29083   2.15751
H    -1.55888   2.04104  -0.72314
H     0.71344   2.64807   0.58192
H     0.31948   3.06325  -1.87281
H     1.02829   1.49080  -2.29586
H     2.05674   2.76984  -1.61921
H     1.56033   0.61406   1.45663
H     3.46407   0.46894  -0.44615
H     2.70764  -1.05686   0.05975
H     2.19517  -0.25347  -1.45029
H    -0.34195  -0.26596  -2.39582
H    -1.85701   0.67670  -2.33444
H    -1.89681  -1.08795  -2.08450
28

C    -1.43921   1.70020   1.40716
C    -0.87688   1.42844  -0.02636
C     0.58962   1.76540  -0.15404
C     1.03645   2.29356  -1.54884
C     1.43394   0.63348   0.36556
C     2.49988  -0.07253  -0.40747
C    -0.35972  -0.86027   0.23239
C    -0.54577  -1.12738   1.63543
N    -0.59479  -1.36300   2.77636
C     0.10119  -2.01798  -0.47096
N     0.56257  -2.92769  -1.03651
N    -1.21376   0.03389  -0.44941
C    -1.31916  -0.17184  -1.88918
H    -2.45506   1.30098   1.64487
H    -1.47137   2.78390   1.53134
H    -0.74669   1.29026   2.15592
H    -1.56287   2.03949  -0.72403
H     0.70899   2.64807   0.58144
H     0.31819   3.06217  -1.87204
H     1.02887   1.49042  -2.29524
H     2.05645   2.77235  -1.62386
H     1.56031   0.61499   1.45656
H     3.46549   0.46579  -0.44743
H     2.70556  -1.05766   0.05990
H     2.19414  -0.25394  -1.45004
H    -0.34188  -0.26730  -2.39533
H    -1.85608   0.67713  -2.33486
H    -1.89767  -1.08756  -2.08367
28

C    -1.44083   1.69875   1.40858
C    -0.90656   1.41847  -0.02478
C     0.61800   1.77410  -0.15302
C     1.03961   2.29579  -1.55075
C     1.44496   0.64524   0.36592
C     2.50037  -0.07433  -0.40771
C    -0.37058  -0.86851   0.23307
C    -0.54711  -1.12777   1.63556
N    -0.59398  -1.36269   2.77712
C     0.09837  -2.01938  -0.47136
N     0.56290  -2.92797  -1.03680
N    -1.20932   0.03565  -0.45033
C    -1.31921  -0.17183  -1.89037
H    -2.45512   1.30164   1.64901
H    -1.47100   2.78357   1.53023
H    -0.74535   1.28969   2.15432
H    -1.56685   2.03793  -0.72493
H     0.70453   2.64806   0.58096
H     0.31691   3.06109  -1.87126
H     1.02946   1.49004  -2.29462
H     2.05616   2.77487  -1.62852
H     1.56030   0.61593   1.45649
H     3.46690   0.46263  -0.44870
H     2.70348  -1.05846   0.06005
H     2.19311  -0.25440  -1.44980
H    -0.34182  -0.26864  -2.39484
H    -1.85516   0.67757  -2.33529
H    -1.89853  -1.08717  -2.08284
28

C    -1.44246   1.69729   1.40999
C    -0.93624   1.40850  -0.02321
C     0.64639   1.78281  -0.15200
C     1.04277   2.29802  -1.55266
C     1.45597   0.65700   0.36628
C     2.50085  -0.07613  -0.40795
C    -0.38144  -0.87675   0.23375
C    -0.54845  -1.12815   1.63570
N    -0.59317  -1.36238   2.77787
C     0.09556  -2.02078  -0.47176
N     0.56324  -2.92825  -1.03709
N    -1.20488   0.03741  -0.45126
C    -1.31925  -0.17183  -1.89157
H    -2.45518   1.30229   1.65314
H    -1.47063   2.78323   1.52912
H    -0.74401   1.28912   2.15272
H    -1.57083   2.03638  -0.72582
H     0.70008   2.64806   0.58048
H     0.31563   3.06000  -1.87049
H     1.03004   1.48966  -2.29400
H     2.05586   2.77738  -1.63317
H     1.56029   0.61686   1.45642
H     3.46832   0.45948  -0.44998
H     2.70140  -1.05927   0.06020
H     2.19208  -0.25487  -1.44955
H    -0.34175  -0.26998  -2.39435
H    -1.85423   0.67801  -2.33572
H    -1.89939  -1.08678  -2.08201
28

C    -1.44408   1.69583   1.41141
C    -0.96592   1.39852  -0.02163
C     0.67477   1.79151  -0.15098
C     1.04593   2.30026  -1.55457
C     1.46699   0.66876   0.36665
C     2.50134  -0.07792  -0.40819
C    -0.39230  -0.88500   0.23443
C    -0.54979  -1.12854   1.63584
N    -0.59236  -1.36208   2.77863
C     0.09274  -2.02217  -0.47215
N     0.56357  -2.92853  -1.03738
N    -1.20045   0.03917  -0.45218
C    -1.31930  -0.17183  -1.89276
H    -2.45524   1.30295   1.65728
H    -1.47026   2.78289   1.52801
H    -0.74267   1.28855   2.15112
H    -1.57482   2.03482  -0.72671
H     0.69562   2.64806   0.57999
H     0.31434   3.05892  -1.86971
H     1.03063   1.48928  -2.29338
H     2.05557   2.77990  -1.63783
H     1.56028   0.61779   1.45635
H     3.46974   0.45633  -0.45126
H     2.69932  -1.06007   0.06035
H     2.19105  -0.25534  -1.44930
H    -0.34169  -0.27131  -2.39386
H    -1.85330   0.67845  -2.33614
H    -1.90026  -1.08640  -2.08118
28

C    -1.44571   1.69438   1.41282
C    -0.99560   1.38855  -0.02006
C     0.70316   1.80021  -0.14997
C     1.04909   2.30249  -1.55649
C     1.47800   0.68053   0.36701
C     2.50183  -0.07972  -0.40843
C    -0.40316  -0.89324   0.23510
C    -0.55113  -1.12892   1.63598
N    -0.59154  -1.36177   2.77939
C     0.08993  -2.02357  -0.47255
N     0.56391  -2.92881  -1.03767
N    -1.19601   0.04092  -0.45311
C    -1.31935  -0.17182  -1.89396
H    -2.45529   1.30360   1.66142
H    -1.46989   2.78256   1.52690
H    -0.74133   1.28798   2.14952
H    -1.57880   2.03326  -0.72760
H     0.69116   2.64805   0.57951
H     0.31306   3.05784  -1.86894
H     1.03121   1.48890  -2.29276
H     2.05528   2.78241  -1.64249
H     1.56027   0.61872   1.45628
H     3.47115   0.45317  -0.45254
H     2.69724  -1.06087   0.06050
H     2.19002  -0.25581  -1.44906
H    -0.34162  -0.27265  -2.39338
H    -1.85238   0.67889  -2.33657
H    -1.90112  -1.08601  -2.08035
28

C    -1.44733   1.69292   1.41424
C    -1.02528   1.37858  -0.01848
C     0.73154   1.80892  -0.14895
C     1.05225   2.30473  -1.55840
C     1.48902   0.69229   0.36737
C     2.50231  -0.08151  -0.40868
C    -0.41402  -0.90149   0.23578
C    -0.55246  -1.12931   1.63612
N    -0.59073  -1.36146   2.78014
C     0.08711  -2.02497  -0.47294
N     0.56424  -2.92909  -1.03796
N    -1.19157   0.04268  -0.45403
C    -1.31940  -0.17182  -1.89515
H    -2.45535   1.30426   1.66556
H    -1.46952   2.78222   1.52579
H    -0.73999   1.28741   2.14792
H    -1.58279   2.03171  -0.72849
H     0.68671   2.64805   0.57903
H     0.31177   3.05675  -1.86816
H     1.03179   1.48852  -2.29215
H     2.05499   2.78493  -1.64714
H     1.56026   0.61965   1.45621
H     3.47257   0.45002  -0.45381
H     2.69516  -1.06168   0.06064
H     2.18899  -0.25628  -1.44881
H    -0.34155  -0.27399  -2.39289
H    -1.85145   0.67933  -2.33699
H    -1.90198  -1.08562  -2.07952
28

C    -1.44896   1.69147   1.41565
C    -1.05496   1.36860  -0.01691
C     0.75993   1.81762  -0.14793
C     1.05541   2.30696  -1.56031
C     1.50004   0.70405   0.36773
C     2.50280  -0.08331  -0.40892
C    -0.42488  -0.90973   0.23646
C    -0.55380  -1.12969   1.63626
N    -0.58992  -1.36116   2.78090
C     0.08429  -2.02636  -0.47334
N     0.56458  -2.92937  -1.03825
N    -1.18713   0.04444  -0.45496
C    -1.31945  -0.17182  -1.89635
H    -2.45541   1.30491   1.66970
H    -1.46915   2.78188   1.52468
H    -0.73865   1.28684   2.14632
H    -1.58677   2.03015  -0.72938
H     0.68225   2.64804   0.57855
H     0.31049   3.05567  -1.86739
H     1.03238   1.48814  -2.29153
H     2.05469   2.78744  -1.65180
H     1.56024   0.62059   1.45614
H     3.47398   0.44686  -0.45509
H     2.69308  -1.06248   0.06079
H     2.18796  -0.25675  -1.44856
H    -0.34149  -0.27533  -2.39240
H    -1.85052   0.67977  -2.33742
H    -1.90284  -1.08523  -2.07869
28

C    -1.45058   1.69001   1.41707
C    -1.08464   1.35863  -0.01534
C     0.78831   1.82633  -0.14691
C     1.05857   2.30919  -1.56222
C     1.51105   0.71582   0.36809
C     2.50328  -0.08511  -0.40916
C    -0.43574  -0.91797   0.23714
C    -0.55514  -1.13008   1.63639
N    -0.58911  -1.36085   2.78166
C     0.08148  -2.02776  -0.47374
N     0.56492  -2.92964  -1.03854
N    -1.18270   0.04619  -0.45588
C    -1.31950  -0.17182  -1.89754
H    -2.45547   1.30557   1.67383
H    -1.46878   2.78155   1.52357
H    -0.73731   1.28627   2.14472
H    -1.59076   2.02860  -0.73028
H     0.67780   2.64804   0.57807
H     0.30921   3.05459  -1.86661
H     1.03296   1.48776  -2.29091
H     2.05440   2.78996  -1.65645
H     1.56023   0.62152   1.45607
H     3.47540   0.44371  -0.45637
H     2.69100  -1.06328   0.06094
H     2.18693  -0.25722  -1.44831
H    -0.34142  -0.27666  -2.39191
H    -1.84960   0.68021  -2.33785
H    -1.90371  -1.08484  -2.07786
28

C    -1.45221   1.68856   1.41848
C    -1.11432   1.34866  -0.01376
C     0.81670   1.83503  -0.14589
C     1.06173   2.31143  -1.56413
C     1.52207   0.72758   0.36846
C     2.50377  -0.08690  -0.40940
C    -0.44660  -0.92622   0.23781
C    -0.55648  -1.13046   1.63653
N    -0.58830  -1.36055   2.78242
C     0.07866  -2.02916  -0.47413
N     0.56525  -2.92992  -1.03883
N    -1.17826   0.04795  -0.45681
C    -1.31955  -0.17181  -1.89874
H    -2.45553   1.30622   1.67797
H    -1.46841   2.78121   1.52247
H    -0.73597   1.28570   2.14313
H    -1.59474   2.02704  -0.73117
H     0.67334   2.64804   0.57758
H     0.30792   3.05350  -1.86584
H     1.03355   1.48738  -2.29029
H     2.05411   2.79247  -1.66111
H     1.56022   0.62245   1.45600
H     3.47682   0.44055  -0.45765
H     2.68892  -1.06408   0.06109
H     2.18590  -0.25769  -1.44807
H    -0.34136  -0.27800  -2.39142
H    -1.84867   0.68065  -2.33827
H    -1.90457  -1.08446  -2.07702
28

C    -1.45383   1.68710   1.41990
C    -1.14399   1.33868  -0.01219
C     0.84508   1.84373  -0.14488
C     1.06489   2.31366  -1.56605
C     1.53309   0.73934   0.36882
C     2.50425  -0.08870  -0.40964
C    -0.45746  -0.93446   0.23849
C    -0.55781  -1.13085   1.63667
N    -0.58749  -1.36024   2.78317
C     0.07585  -2.03056  -0.47453
N     0.56559  -2.93020  -1.03912
N    -1.17382   0.04971  -0.45773
C    -1.31959  -0.17181  -1.89993
H    -2.45558   1.30688   1.68211
H    -1.46804   2.78087   1.52136
H    -0.73463   1.28512   2.14153
H    -1.59872   2.02549  -0.73206
H     0.66889   2.64803   0.57710
H     0.30664   3.05242  -1.86506
H     1.03413   1.48700  -2.28967
H     2.05382   2.79499  -1.66576
H     1.56021   0.62338   1.45593
H     3.47823   0.43740  -0.45892
H     2.68684  -1.06489   0.06124
H     2.18487  -0.25815  -1.44782
H    -0.34129  -0.27934  -2.39093
H    -1.84774   0.68109  -2.33870
H    -1.90543  -1.08407  -2.07619
28

C    -1.45546   1.68565   1.42131
C    -1.17367   1.32871  -0.01061
C     0.87347   1.85244  -0.14386
C     1.06805   2.31589  -1.56796
C     1.54410   0.75111   0.36918
C     2.50474  -0.09050  -0.40989
C    -0.46832  -0.94270   0.23917
C    -0.55915  -1.13123   1.63681
N    -0.58668  -1.35993   2.78393
C     0.07303  -2.03195  -0.47493
N     0.56592  -2.93048  -1.03941
N    -1.16939   0.05147  -0.45866
C    -1.31964  -0.17181  -1.90113
H    -2.45564   1.30753   1.68625
H    -1.46767   2.78054   1.52025
H    -0.73329   1.28455   2.13993
H    -1.60271   2.02393  -0.73295
H     0.66443   2.64803   0.57662
H     0.30535   3.05134  -1.86429
H     1.03471   1.48662  -2.28905
H     2.05352   2.79750  -1.67042
H     1.56020   0.62431   1.45586
H     3.47965   0.43424  -0.46020
H     2.68476  -1.06569   0.06139
H     2.18384  -0.25862  -1.44757
H    -0.34123  -0.28068  -2.39045
H    -1.84682   0.68152  -2.33913
H    -1.90629  -1.08368  -2.07536
28

C    -1.45708   1.68419   1.42272
C    -1.20335   1.31874  -0.00904
C     0.90185   1.86114  -0.14284
C     1.07121   2.31813  -1.56987
C     1.55512   0.76287   0.36954
C     2.50522  -0.09229  -0.41013
C    -0.47918  -0.95095   0.23985
C    -0.56049  -1.13162   1.63695
N    -0.58586  -1.35963   2.78469
C     0.07021  -2.03335  -0.47532
N     0.56626  -2.93076  -1.03970
N    -1.16495   0.05322  -0.45958
C    -1.31969  -0.17180  -1.90232
H    -2.45570   1.30819   1.69038
H    -1.46729   2.78020   1.51914
H    -0.73195   1.28398   2.13833
H    -1.60669   2.02237  -0.73384
H     0.65997   2.64803   0.57614
H     0.30407   3.05025  -1.86351
H     1.03530   1.48624  -2.28843
H     2.05323   2.80002  -1.67508
H     1.56018   0.62524   1.45580
H     3.48106   0.43109  -0.46148
H     2.68268  -1.06649   0.06154
H     2.18281  -0.25909  -1.44733
H    -0.34116  -0.28201  -2.38996
H    -1.84589   0.68196  -2.33955
H    -1.90716  -1.08329  -2.07453
28

C    -1.45871   1.68273   1.42414
C    -1.23303   1.30876  -0.00746
C     0.93024   1.86985  -0.14182
C     1.07437   2.32036  -1.57178
C     1.56613   0.77463   0.36991
C     2.50571  -0.09409  -0.41037
C    -0.49004  -0.95919   0.24053
C    -0.56183  -1.13200   1.63709
N    -0.58505  -1.35932   2.78545
C     0.06740  -2.03475  -0.47572
N     0.56659  -2.93104  -1.03999
N    -1.16051   0.05498  -0.46051
C    -1.31974  -0.17180  -1.90352
H    -2.45576   1.30884   1.69452
H    -1.46692   2.77986   1.51803
H    -0.73061   1.28341   2.13673
H    -1.61068   2.02082  -0.73474
H     0.65552   2.64802   0.57566
H     0.30279   3.04917  -1.86274
H     1.03588   1.48586  -2.28781
H     2.05294   2.80253  -1.67973
H     1.56017   0.62618   1.45573
H     3.48248   0.42794  -0.46276
H     2.68061  -1.06730   0.06169
H     2.18178  -0.25956  -1.44708
H    -0.34110  -0.28335  -2.38947
H    -1.84497   0.68240  -2.33998
H    -1.90802  -1.08290  -2.07370
28

C    -1.46033   1.68128   1.42555
C    -1.26271   1.29879  -0.00589
C     0.95862   1.87855  -0.14080
C     1.07753   2.32260  -1.57370
C     1.57715   0.78640   0.37027
C     2.50619  -0.09589  -0.41061
C    -0.50090  -0.96744   0.24120
C    -0.56317  -1.13239   1.63723
N    -0.58424  -1.35901   2.78620
C     0.06458  -2.03614  -0.47612
N     0.56693  -2.93132  -1.04028
N    -1.15607   0.05674  -0.46143
C    -1.31979  -0.17180  -1.90471
H    -2.45581   1.30950   1.69866
H    -1.46655   2.77953   1.51692
H    -0.72927   1.28284   2.13513
H    -1.61466   2.01926  -0.73563
H     0.65106   2.64802   0.57517
H     0.30150   3.04809  -1.86196
H     1.03647   1.48548  -2.28719
H     2.05264   2.80505  -1.68439
H     1.56016   0.62711   1.45566
H     3.48390   0.42478  -0.46403
H     2.67853  -1.06810   0.06184
H     2.18075  -0.26003  -1.44683
H    -0.34103  -0.28469  -2.38898
H    -1.84404   0.68284  -2.34041
H    -1.90888  -1.08251  -2.07287
28

C    -1.46196   1.67982   1.42697
C    -1.29239   1.28882  -0.00432
C     0.98700   1.88726  -0.13979
C     1.08069   2.32483  -1.57561
C     1.58817   0.79816   0.37063
C     2.50668  -0.09768  -0.41085
C    -0.51176  -0.97568   0.24188
C    -0.56450  -1.13277   1.63736
N    -0.58343  -1.35871   2.78696
C     0.06177  -2.03754  -0.47651
N     0.56727  -2.93160  -1.04057
N    -1.15164   0.05849  -0.46236
C    -1.31984  -0.17179  -1.90591
H    -2.45587   1.31015   1.70280
H    -1.46618   2.77919   1.51581
H    -0.72793   1.28227   2.13353
H    -1.61865   2.01771  -0.73652
H     0.64661   2.64801   0.57469
H     0.30022   3.04700  -1.86119
H     1.03705   1.48511  -2.28657
H     2.05235   2.80756  -1.68904
H     1.56015   0.62804   1.45559
H     3.48531   0.42163  -0.46531
H     2.67645  -1.06890   0.06199
H     2.17971  -0.26050  -1.44659
H    -0.34097  -0.28603  -2.38849
H    -1.84311   0.68328  -2.34083
H    -1.90974  -1.08213  -2.07204
28

C    -1.46358   1.67837   1.42838
C    -1.32207   1.27884  -0.00274
C     1.01539   1.89596  -0.13877
C     1.08385   2.32706  -1.57752
C     1.59918   0.80992   0.37099
C     2.50716  -0.09948  -0.41110
C    -0.52262  -0.98392   0.24256
C    -0.56584  -1.13316   1.63750
N    -0.58262  -1.35840   2.78772
C     0.05895  -2.03894  -0.47691
N     0.56760  -2.93188  -1.04086
N    -1.14720   0.06025  -0.46328
C    -1.31988  -0.17179  -1.90710
H    -2.45593   1.31081   1.70694
H    -1.46581   2.77885   1.51470
H    -0.72659   1.28170   2.13193
H    -1.62263   2.01615  -0.73741
H     0.64215   2.64801   0.57421
H     0.29893   3.04592  -1.86041
H     1.03763   1.48473  -2.28595
H     2.05206   2.81008  -1.69370
H     1.56014   0.62897   1.45552
H     3.48673   0.41847  -0.46659
H     2.67437  -1.06970   0.06213
H     2.17868  -0.26097  -1.44634
H    -0.34090  -0.28737  -2.38801
H    -1.84219   0.68372  -2.34126
H    -1.91061  -1.08174  -2.07121
28

C    -1.46520   1.67691   1.42980
C    -1.35175   1.26887  -0.00117
C     1.04377   1.90466  -0.13775
C     1.08701   2.32930  -1.57943
C     1.61020   0.82169   0.37135
C     2.50765  -0.10127  -0.41134
C    -0.53348  -0.99217   0.24324
C    -0.56718  -1.13355   1.63764
N    -0.58181  -1.35809   2.78848
C     0.05613  -2.04033  -0.47731
N     0.56794  -2.93216  -1.04115
N    -1.14276   0.06201  -0.46421
C    -1.31993  -0.17179  -1.90830
H    -2.45599   1.31146   1.71107
H    -1.46544   2.77852   1.51359
H    -0.72525   1.28113   2.13034
H    -1.62662   2.01460  -0.73830
H     0.63770   2.64801   0.57373
H     0.29765   3.04484  -1.85964
H     1.03822   1.48435  -2.28534
H     2.05177   2.81259  -1.69836
H     1.56012   0.62990   1.45545
H     3.48814   0.41532  -0.46787
H     2.67229  -1.07051   0.06228
H     2.17765  -0.26143  -1.44609
H    -0.34084  -0.28870  -2.38752
H    -1.84126   0.68416  -2.34168
H    -1.91147  -1.08135  -2.07038
28

C    -1.46683   1.67546   1.43121
C    -1.38143   1.25889   0.00041
C     1.07216   1.91337  -0.13673
C     1.09017   2.33153  -1.58134
C     1.62121   0.83345   0.37172
C     2.50813  -0.10307  -0.41158
C    -0.54434  -1.00041   0.24391
C    -0.56852  -1.13393   1.63778
N    -0.58100  -1.35779   2.78923
C     0.05332  -2.04173  -0.47770
N     0.56827  -2.93244  -1.04144
N    -1.13833   0.06376  -0.46513
C    -1.31998  -0.17179  -1.90949
H    -2.45605   1.31212   1.71521
H    -1.46507   2.77818   1.51248
H    -0.72391   1.28056   2.12874
H    -1.63060   2.01304  -0.73919
H     0.63324   2.64800   0.57324
H     0.29637   3.04375  -1.85886
H     1.03880   1.48397  -2.28472
H     2.05147   2.81511  -1.70301
H     1.56011   0.63084   1.45538
H     3.48956   0.41216  -0.46914
H     2.67021  -1.07131   0.06243
H     2.17662  -0.26190  -1.44585
H    -0.34077  -0.29004  -2.38703
H    -1.84033   0.68460  -2.34211
H    -1.91233  -1.08096  -2.06955
28

C    -1.46845   1.67400   1.43263
C    -1.41111   1.24892   0.00198
C     1.10054   1.92207  -0.13571
C     1.09333   2.33377  -1.58326
C     1.63223   0.84521   0.37208
C     2.50862  -0.10487  -0.41182
C    -0.55520  -1.00865   0.24459
C    -0.56986  -1.13432   1.63792
N    -0.58019  -1.35748   2.78999
C     0.05050  -2.04313  -0.47810
N     0.56861  -2.93272  -1.04173
N    -1.13389   0.06552  -0.46606
C    -1.32003  -0.17178  -1.91069
H    -2.45610   1.31277   1.71935
H    -1.46470   2.77784   1.51138
H    -0.72257   1.27999   2.12714
H    -1.63458   2.01148  -0.74009
H     0.62878   2.64800   0.57276
H     0.29508   3.04267  -1.85809
H     1.03939   1.48359  -2.28410
H     2.05118   2.81762  -1.70767
H     1.56010   0.63177   1.45531
H     3.49098   0.40901  -0.47042
H     2.66813  -1.07211   0.06258
H     2.17559  -0.26237  -1.44560
H    -0.34071  -0.29138  -2.38654
H    -1.83941   0.68504  -2.34254
H    -1.91319  -1.08057  -2.06872
28

C    -1.47008   1.67254   1.43404
C    -1.44079   1.23895   0.00356
C     1.12893   1.93078  -0.13470
C     1.09649   2.33600  -1.58517
C     1.64325   0.85698   0.37244
C     2.50910  -0.10666  -0.41206
C    -0.56606  -1.01690   0.24527
C    -0.57119  -1.13470   1.63806
N    -0.57937  -1.35718   2.79075
C     0.04769  -2.04452  -0.47850
N     0.56895  -2.93299  -1.04202
N    -1.12945   0.06728  -0.46698
C    -1.32008  -0.17178  -1.91188
H    -2.45616   1.31343   1.72349
H    -1.46433   2.77751   1.51027
H    -0.72123   1.27942   2.12554
H    -1.63857   2.00993  -0.74098
H     0.62433   2.64799   0.57228
H     0.29380   3.04159  -1.85731
H     1.03997   1.48321  -2.28348
H     2.05089   2.82014  -1.71232
H     1.56009   0.63270   1.45524
H     3.49239   0.40586  -0.47170
H     2.66605  -1.07292   0.06273
H     2.17456  -0.26284  -1.44535
H    -0.34064  -0.29272  -2.38605
H    -1.83848   0.68548  -2.34296
H    -1.91406  -1.08019  -2.06789
28

C    -1.46845   1.67400   1.43263
C    -1.41111   1.24892   0.00198
C     1.10054   1.92207  -0.13571
C     1.09333   2.33377  -1.58326
C     1.63223   0.84521   0.37208
C     2.50862  -0.10487  -0.41182
C    -0.55520  -1.00865   0.24459
C    -0.56986  -1.13432   1.63792
N    -0.58019  -1.35748   2.78999
C     0.05050  -2.04313  -0.47810
N     0.56861  -2.93272  -1.04173
N    -1.13389   0.06552  -0.46606
C    -1.32003  -0.17178  -1.91069
H    -2.45610   1.31277   1.71935
H    -1.46470   2.77784   1.51138
H    -0.72257   1.27999   2.12714
H    -1.63458   2.01148  -0.74009
H     0.62878   2.64800   0.57276
H     0.29508   3.04267  -1.85809
H     1.03939   1.48359  -2.28410
H     2.05118   2.81762  -1.70767
H     1.56010   0.63177   1.45531
H     3.49098   0.40901  -0.47042
H     2.66813  -1.07211   0.06258
H     2.17559  -0.26237  -1.44560
H    -0.34071  -0.29138  -2.38654
H    -1.83941   0.68504  -2.34254
H    -1.91319  -1.08057  -2.06872
28

C    -1.46683   1.67546   1.43121
C    -1.38143   1.25889   0.00041
C     1.07216   1.91337  -0.13673
C     1.09017   2.33153  -1.58134
C     1.62121   0.83345   0.37172
C     2.50813  -0.10307  -0.41158
C    -0.54434  -1.00041   0.24391
C    -0.56852  -1.13393   1.63778
N    -0.58100  -1.35779   2.78923
C     0.05332  -2.04173  -0.47770
N     0.56827  -2.93244  -1.04144
N    -1.13833   0.06376  -0.46513
C    -1.31998  -0.17179  -1.90949
H    -2.45605   1.31212   1.71521
H    -1.46507   2.77818   1.51248
H    -0.72391   1.28056   2.12874
H    -1.63060   2.01304  -0.73919
H     0.63324   2.64800   0.57324
H     0.29637   3.04375  -1.85886
H     1.03880   1.48397  -2.28472
H     2.05147   2.81511  -1.70301
H     1.56011   0.63084   1.45538
H     3.48956   0.41216  -0.46914
H     2.67021  -1.07131   0.06243
H     2.17662  -0.26190  -1.44585
H    -0.34077  -0.29004  -2.38703
H    -1.84033   0.68460  -2.34211
H    -1.91233  -1.08096  -2.06955
28

C    -1.46520   1.67691   1.42980
C    -1.35175   1.26887  -0.00117
C     1.04377   1.90466  -0.13775
C     1.08701   2.32930  -1.57943
C     1.61020   0.82169   0.37135
C     2.50765  -0.10127  -0.41134
C    -0.53348  -0.99217   0.24324
C    -0.56718  -1.13355   1.63764
N    -0.58181  -1.35809   2.78848
C     0.05613  -2.04033  -0.47731
N     0.56794  -2.93216  -1.04115
N    -1.14276   0.06201  -0.46421
C    -1.31993  -0.17179  -1.90830
H    -2.45599   1.31146   1.71107
H    -1.46544   2.77852   1.51359
H    -0.72525   1.28113   2.13034
H    -1.62662   2.01460  -0.73830
H     0.63770   2.64801   0.57373
H     0.29765   3.04484  -1.85964
H     1.03822   1.48435  -2.28534
H     2.05177   2.81259  -1.69836
H     1.56012   0.62990   1.45545
H     3.48814   0.41532  -0.46787
H     2.67229  -1.07051   0.06228
H     2.17765  -0.26143  -1.44609
H    -0.34084  -0.28870  -2.38752
H    -1.84126   0.68416  -2.34168
H    -1.91147  -1.08135  -2.07038
28

C    -1.46358   1.67837   1.42838
C    -1.32207   1.27884  -0.00274
C     1.01539   1.89596  -0.13877
C     1.08385   2.32706  -1.57752
C     1.59918   0.80992   0.37099
C     2.50716  -0.09948  -0.41110
C    -0.52262  -0.98392   0.24256
C    -0.56584  -1.13316   1.63750
N    -0.58262  -1.35840   2.78772
C     0.05895  -2.03894  -0.47691
N     0.56760  -2.93188  -1.04086
N    -1.14720   0.06025  -0.46328
C    -1.31988  -0.17179  -1.90710
H    -2.45593   1.31081   1.70694
H    -1.46581   2.77885   1.51470
H    -0.72659   1.28170   2.13193
H    -1.62263   2.01615  -0.73741
H     0.64215   2.64801   0.57421
H     0.29893   3.04592  -1.86041
H     1.03763   1.48473  -2.28595
H     2.05206   2.81008  -1.69370
H     1.56014   0.62897   1.45552
H     3.48673   0.41847  -0.46659
H     2.67437  -1.06970   0.06213
H     2.17868  -0.26097  -1.44634
H    -0.34090  -0.28737  -2.38801
H    -1.84219   0.68372  -2.34126
H    -1.91061  -1.08174  -2.07121
28

C    -1.46196   1.67982   1.42697
C    -1.29239   1.28882  -0.00432
C     0.98700   1.88726  -0.13979
C     1.08069   2.32483  -1.57561
C     1.58817   0.79816   0.37063
C     2.50668  -0.09768  -0.41085
C    -0.51176  -0.97568   0.24188
C    -0.56450  -1.13277   1.63736
N    -0.58343  -1.35871   2.78696
C     0.06177  -2.03754  -0.47651
N     0.56727  -2.93160  -1.04057
N    -1.15164   0.05849  -0.46236
C    -1.31984  -0.17179  -1.90591
H    -2.45587   1.31015   1.70280
H    -1.46618   2.77919   1.51581
H    -0.72793   1.28227   2.13353
H    -1.61865   2.01771  -0.73652
H     0.64661   2.64801   0.57469
H     0.30022   3.04700  -1.86119
H     1.03705   1.48511  -2.28657
H     2.05235   2.80756  -1.68904
H     1.56015   0.62804   1.45559
H     3.48531   0.42163  -0.46531
H     2.67645  -1.06890   0.06199
H     2.17971  -0.26050  -1.44659
H    -0.34097  -0.28603  -2.38849
H    -1.84311   0.68328  -2.34083
H    -1.90974  -1.08213  -2.07204
28

C    -1.46033   1.68128   1.42555
C    -1.26271   1.29879  -0.00589
C     0.95862   1.87855  -0.14080
C     1.07753   2.32260  -1.57370
C     1.57715   0.78640   0.37027
C     2.50619  -0.09589  -0.41061
C    -0.50090  -0.96744   0.24120
C    -0.56317  -1.13239   1.63723
N    -0.58424  -1.35901   2.78620
C     0.06458  -2.03614  -0.47612
N     0.56693  -2.93132  -1.04028
N    -1.15607   0.05674  -0.46143
C    -1.31979  -0.17180  -1.90471
H    -2.45581   1.30950   1.69866
H    -1.46655   2.77953   1.51692
H    -0.72927   1.28284   2.13513
H    -1.61466   2.01926  -0.73563
H     0.65106   2.64802   0.57517
H     0.30150   3.04809  -1.86196
H     1.03647   1.48548  -2.28719
H     2.05264   2.80505  -1.68439
H     1.56016   0.62711   1.45566
H     3.48390   0.42478  -0.46403
H     2.67853  -1.06810   0.06184
H     2.18075  -0.26003  -1.44683
H    -0.34103  -0.28469  -2.38898
H    -1.84404   0.68284  -2.34041
H    -1.90888  -1.08251  -2.07287
28

C    -1.45871   1.68273   1.42414
C    -1.23303   1.30876  -0.00746
C     0.93024   1.86985  -0.14182
C     1.07437   2.32036  -1.57178
C     1.56613   0.77463   0.36991
C     2.50571  -0.09409  -0.41037
C    -0.49004  -0.95919   0.24053
C    -0.56183  -1.13200   1.63709
N    -0.58505  -1.35932   2.78545
C     0.06740  -2.03475  -0.47572
N     0.56659  -2.93104  -1.03999
N    -1.16051   0.05498  -0.46051
C    -1.31974  -0.17180  -1.90352
H    -2.45576   1.30884   1.69452
H    -1.46692   2.77986   1.51803
H    -0.73061   1.28341   2.13673
H    -1.61068   2.02082  -0.73474
H     0.65552   2.64802   0.57566
H     0.30279   3.04917  -1.86274
H     1.03588   1.48586  -2.28781
H     2.05294   2.80253  -1.67973
H     1.56017   0.62618   1.45573
H     3.48248   0.42794  -0.46276
H     2.68061  -1.06730   0.06169
H     2.18178  -0.25956  -1.44708
H    -0.34110  -0.28335  -2.38947
H    -1.84497   0.68240  -2.33998
H    -1.90802  -1.08290  -2.07370
28

C    -1.45708   1.68419   1.42272
C    -1.20335   1.31874  -0.00904
C     0.90185   1.86114  -0.14284
C     1.07121   2.31813  -1.56987
C     1.55512   0.76287   0.36954
C     2.50522  -0.09229  -0.41013
C    -0.47918  -0.95095   0.23985
C    -0.56049  -1.13162   1.63695
N    -0.58586  -1.35963   2.78469
C     0.07021  -2.03335  -0.47532
N     0.56626  -2.93076  -1.03970
N    -1.16495   0.05322  -0.45958
C    -1.31969  -0.17180  -1.90232
H    -2.45570   1.30819   1.69038
H    -1.46729   2.78020   1.51914
H    -0.73195   1.28398   2.13833
H    -1.60669   2.02237  -0.73384
H     0.65997   2.64803   0.57614
H     0.30407   3.05025  -1.86351
H     1.03530   1.48624  -2.28843
H     2.05323   2.80002  -1.67508
H     1.56018   0.62524   1.45580
H     3.48106   0.43109  -0.46148
H     2.68268  -1.06649   0.06154
H     2.18281  -0.25909  -1.44733
H    -0.34116  -0.28201  -2.38996
H    -1.84589   0.68196  -2.33955
H    -1.90716  -1.08329  -2.07453
28

C    -1.45546   1.68565   1.42131
C    -1.17367   1.32871  -0.01061
C     0.87347   1.85244  -0.14386
C     1.06805   2.31589  -1.56796
C     1.54410   0.75111   0.36918
C     2.50474  -0.09050  -0.40989
C    -0.46832  -0.94270   0.23917
C    -0.55915  -1.13123   1.63681
N    -0.58668  -1.35993   2.78393
C     0.07303  -2.03195  -0.47493
N     0.56592  -2.93048  -1.03941
N    -1.16939   0.05147  -0.45866
C    -1.31964  -0.17181  -1.90113
H    -2.45564   1.30753   1.68625
H    -1.46767   2.78054   1.52025
H    -0.73329   1.28455   2.13993
H    -1.60271   2.02393  -0.73295
H     0.66443   2.64803   0.57662
H     0.30535   3.05134  -1.86429
H     1.03471   1.48662  -2.28905
H     2.05352   2.79750  -1.67042
H     1.56020   0.62431   1.45586
H     3.47965   0.43424  -0.46020
H     2.68476  -1.06569   0.06139
H     2.18384  -0.25862  -1.44757
H    -0.34123  -0.28068  -2.39045
H    -1.84682   0.68152  -2.33913
H    -1.90629  -1.08368  -2.07536
28

C    -1.45383   1.68710   1.41990
C    -1.14399   1.33868  -0.01219
C     0.84508   1.84373  -0.14488
C     1.06489   2.31366  -1.56605
C     1.53309   0.73934   0.36882
C     2.50425  -0.08870  -0.40964
C    -0.45746  -0.93446   0.23849
C    -0.55781  -1.13085   1.63667
N    -0.58749  -1.36024   2.78317
C     0.07585  -2.03056  -0.47453
N     0.56559  -2.93020  -1.03912
N    -1.17382   0.04971  -0.45773
C    -1.31959  -0.17181  -1.89993
H    -2.45558   1.30688   1.68211
H    -1.46804   2.78087   1.52136
H    -0.73463   1.28512   2.14153
H    -1.59872   2.02549  -0.73206
H     0.66889   2.64803   0.57710
H     0.30664   3.05242  -1.86506
H     1.03413   1.48700  -2.28967
H     2.05382   2.79499  -1.66576
H     1.56021   0.62338   1.45593
H     3.47823   0.43740  -0.45892
H     2.68684  -1.06489   0.06124
H     2.18487  -0.25815  -1.44782
H    -0.34129  -0.27934  -2.39093
H    -1.84774   0.68109  -2.33870
H    -1.90543  -1.08407  -2.07619
28

C    -1.45221   1.68856   1.41848
C    -1.11432   1.34866  -0.01376
C     0.81670   1.83503  -0.14589
C     1.06173   2.31143  -1.56413
C     1.52207   0.72758   0.36846
C     2.50377  -0.08690  -0.40940
C    -0.44660  -0.92622   0.23781
C    -0.55648  -1.13046   1.63653
N    -0.58830  -1.36055   2.78242
C     0.07866  -2.02916  -0.47413
N     0.56525  -2.92992  -1.03883
N    -1.17826   0.04795  -0.45681
C    -1.31955  -0.17181  -1.89874
H    -2.45553   1.30622   1.67797
H    -1.46841   2.78121   1.52247
H    -0.73597   1.28570   2.14313
H    -1.59474   2.02704  -0.73117
H     0.67334   2.64804   0.57758
H     0.30792   3.05350  -1.86584
H     1.03355   1.48738  -2.29029
H     2.05411   2.79247  -1.66111
H     1.56022   0.62245   1.45600
H     3.47682   0.44055  -0.45765
H     2.68892  -1.06408   0.06109
H     2.18590  -0.25769  -1.44807
H    -0.34136  -0.27800  -2.39142
H    -1.84867   0.68065  -2.33827
H    -1.90457  -1.08446  -2.07702
28

C    -1.45058   1.69001   1.41707
C    -1.08464   1.35863  -0.01534
C     0.78831   1.82633  -0.14691
C     1.05857   2.30919  -1.56222
C     1.51105   0.71582   0.36809
C     2.50328  -0.08511  -0.40916
C    -0.43574  -0.91797   0.23714
C    -0.55514  -1.13008   1.63639
N    -0.58911  -1.36085   2.78166
C     0.08148  -2.02776  -0.47374
N     0.56492  -2.92964  -1.03854
N    -1.18270   0.04619  -0.45588
C    -1.31950  -0.17182  -1.89754
H    -2.45547   1.30557   1.67383
H    -1.46878   2.78155   1.52357
H    -0.73731   1.28627   2.14472
H    -1.59076   2.02860  -0.73028
H     0.67780   2.64804   0.57807
H     0.30921   3.05459  -1.86661
H     1.03296   1.48776  -2.29091
H     2.05440   2.78996  -1.65645
H     1.56023   0.62152   1.45607
H     3.47540   0.44371  -0.45637
H     2.69100  -1.06328   0.06094
H     2.18693  -0.25722  -1.44831
H    -0.34142  -0.27666  -2.39191
H    -1.84960   0.68021  -2.33785
H    -1.90371  -1.08484  -2.07786
28

C    -1.44896   1.69147   1.41565
C    -1.05496   1.36860  -0.01691
C     0.75993   1.81762  -0.14793
C     1.05541   2.30696  -1.56031
C     1.50004   0.70405   0.36773
C     2.50280  -0.08331  -0.40892
C    -0.42488  -0.90973   0.23646
C    -0.55380  -1.12969   1.63626
N    -0.58992  -1.36116   2.78090
C     0.08429  -2.02636  -0.47334
N     0.56458  -2.92937  -1.03825
N    -1.18713   0.04444  -0.45496
C    -1.31945  -0.17182  -1.89635
H    -2.45541   1.30491   1.66970
H    -1.46915   2.78188   1.52468
H    -0.73865   1.28684   2.14632
H    -1.58677   2.03015  -0.72938
H     0.68225   2.64804   0.57855
H     0.31049   3.05567  -1.86739
H     1.03238   1.48814  -2.29153
H     2.05469   2.78744  -1.65180
H     1.56024   0.62059   1.45614
H     3.47398   0.44686  -0.45509
H     2.69308  -1.06248   0.06079
H     2.18796  -0.25675  -1.44856
H    -0.34149  -0.27533  -2.39240
H    -1.85052   0.67977  -2.33742
H    -1.90284  -1.08523  -2.07869
28

C    -1.44733   1.69292   1.41424
C    -1.02528   1.37858  -0.01848
C     0.73154   1.80892  -0.14895
C     1.05225   2.30473  -1.55840
C     1.48902   0.69229   0.36737
C     2.50231  -0.08151  -0.40868
C    -0.41402  -0.90149   0.23578
C    -0.55246  -1.12931   1.63612
N    -0.59073  -1.36146   2.78014
C     0.08711  -2.02497  -0.47294
N     0.56424  -2.92909  -1.03796
N    -1.19157   0.04268  -0.45403
C    -1.31940  -0.17182  -1.89515
H    -2.45535   1.30426   1.66556
H    -1.46952   2.78222   1.52579
H    -0.73999   1.28741   2.14792
H    -1.58279   2.03171  -0.72849
H     0.68671   2.64805   0.57903
H     0.31177   3.05675  -1.86816
H     1.03179   1.48852  -2.29215
H     2.05499   2.78493  -1.64714
H     1.56026   0.61965   1.45621
H     3.47257   0.45002  -0.45381
H     2.69516  -1.06168   0.06064
H     2.18899  -0.25628  -1.44881
H    -0.34155  -0.27399  -2.39289
H    -1.85145   0.67933  -2.33699
H    -1.90198  -1.08562  -2.07952
28

C    -1.44571   1.69438   1.41282
C    -0.99560   1.38855  -0.02006
C     0.70316   1.80021  -0.14997
C     1.04909   2.30249  -1.55649
C     1.47800   0.68053   0.36701
C     2.50183  -0.07972  -0.40843
C    -0.40316  -0.89324   0.23510
C    -0.55113  -1.12892   1.63598
N    -0.59154  -1.36177   2.77939
C     0.08993  -2.02357  -0.47255
N     0.56391  -2.92881  -1.03767
N    -1.19601   0.04092  -0.45311
C    -1.31935  -0.17182  -1.89396
H    -2.45529   1.30360   1.66142
H    -1.46989   2.78256   1.52690
H    -0.74133   1.28798   2.14952
H    -1.57880   2.03326  -0.72760
H     0.69116   2.64805   0.57951
H     0.31306   3.05784  -1.86894
H     1.03121   1.48890  -2.29276
H     2.05528   2.78241  -1.64249
H     1.56027   0.61872   1.45628
H     3.47115   0.45317  -0.45254
H     2.69724  -1.06087   0.06050
H     2.19002  -0.25581  -1.44906
H    -0.34162  -0.27265  -2.39338
H    -1.85238   0.67889  -2.33657
H    -1.90112  -1.08601  -2.08035
28

C    -1.44408   1.69583   1.41141
C    -0.96592   1.39852  -0.02163
C     0.67477   1.79151  -0.15098
C     1.04593   2.30026  -1.55457
C     1.46699   0.66876   0.36665
C     2.50134  -0.07792  -0.40819
C    -0.39230  -0.88500   0.23443
C    -0.54979  -1.12854   1.63584
N    -0.59236  -1.36208   2.77863
C     0.09274  -2.02217  -0.47215
N     0.56357  -2.92853  -1.03738
N    -1.20045   0.03917  -0.45218
C    -1.31930  -0.17183  -1.89276
H    -2.45524   1.30295   1.65728
H    -1.47026   2.78289   1.52801
H    -0.74267   1.28855   2.15112
H    -1.57482   2.03482  -0.72671
H     0.69562   2.64806   0.57999
H     0.31434   3.05892  -1.86971
H     1.03063   1.48928  -2.29338
H     2.05557   2.77990  -1.63783
H     1.56028   0.61779   1.45635
H     3.46974   0.45633  -0.45126
H     2.69932  -1.06007   0.06035
H     2.19105  -0.25534  -1.44930
H    -0.34169  -0.27131  -2.39386
H    -1.85330   0.67845  -2.33614
H    -1.90026  -1.08640  -2.08118
28

C    -1.44246   1.69729   1.40999
C    -0.93624   1.40850  -0.02321
C     0.64639   1.78281  -0.15200
C     1.04277   2.29802  -1.55266
C     1.45597   0.65700   0.36628
C     2.50085  -0.07613  -0.40795
C    -0.38144  -0.87675   0.23375
C    -0.54845  -1.12815   1.63570
N    -0.59317  -1.36238   2.77787
C     0.09556  -2.02078  -0.47176
N     0.56324  -2.92825  -1.03709
N    -1.20488   0.03741  -0.45126
C    -1.31925  -0.17183  -1.89157
H    -2.45518   1.30229   1.65314
H    -1.47063   2.78323   1.52912
H    -0.74401   1.28912   2.15272
H    -1.57083   2.03638  -0.72582
H     0.70008   2.64806   0.58048
H     0.31563   3.06000  -1.87049
H     1.03004   1.48966  -2.29400
H     2.05586   2.77738  -1.63317
H     1.56029   0.61686   1.45642
H     3.46832   0.45948  -0.44998
H     2.70140  -1.05927   0.06020
H     2.19208  -0.25487  -1.44955
H    -0.34175  -0.26998  -2.39435
H    -1.85423   0.67801  -2.33572
H    -1.89939  -1.08678  -2.08201
28

C    -1.44083   1.69875   1.40858
C    -0.90656   1.41847  -0.02478
C     0.61800   1.77410  -0.15302
C     1.03961   2.29579  -1.55075
C     1.44496   0.64524   0.36592
C     2.50037  -0.07433  -0.40771
C    -0.37058  -0.86851   0.23307
C    -0.54711  -1.12777   1.63556
N    -0.59398  -1.36269   2.77712
C     0.09837  -2.01938  -0.47136
N     0.56290  -2.92797  -1.03680
N    -1.20932   0.03565  -0.45033
C    -1.31921  -0.17183  -1.89037
H    -2.45512   1.30164   1.64901
H    -1.47100   2.78357   1.53023
H    -0.74535   1.28969   2.15432
H    -1.56685   2.03793  -0.72493
H     0.70453   2.64806   0.58096
H     0.31691   3.06109  -1.87126
H     1.02946   1.49004  -2.29462
H     2.05616   2.77487  -1.62852
H     1.56030   0.61593   1.45649
H     3.46690   0.46263  -0.44870
H     2.70348  -1.05846   0.06005
H     2.19311  -0.25440  -1.44980
H    -0.34182  -0.26864  -2.39484
H    -1.85516   0.67757  -2.33529
H    -1.89853  -1.08717  -2.08284
28

C    -1.43921   1.70020   1.40716
C    -0.87688   1.42844  -0.02636
C     0.58962   1.76540  -0.15404
C     1.03645   2.29356  -1.54884
C     1.43394   0.63348   0.36556
C     2.49988  -0.07253  -0.40747
C    -0.35972  -0.86027   0.23239
C    -0.54577  -1.12738   1.63543
N    -0.59479  -1.36300   2.77636
C     0.10119  -2.01798  -0.47096
N     0.56257  -2.92769  -1.03651
N    -1.21376   0.03389  -0.44941
C    -1.31916  -0.17184  -1.88918
H    -2.45506   1.30098   1.64487
H    -1.47137   2.78390   1.53134
H    -0.74669   1.29026   2.15592
H    -1.56287   2.03949  -0.72403
H     0.70899   2.64807   0.58144
H     0.31819   3.06217  -1.87204
H     1.02887   1.49042  -2.29524
H     2.05645   2.77235  -1.62386
H     1.56031   0.61499   1.45656
H     3.46549   0.46579  -0.44743
H     2.70556  -1.05766   0.05990
H     2.19414  -0.25394  -1.45004
H    -0.34188  -0.26730  -2.39533
H    -1.85608   0.67713  -2.33486
H    -1.89767  -1.08756  -2.08367
