13

C 4.563474693 -0.152510007 -0.454954323
O 2.603854931 1.150141687 -1.544647016
C 0.328417280 0.753515177 -0.953840905
C -0.423468349 -1.093658113 1.024076413
N -3.070550274 -0.481842821 1.181621689
C -3.568135798 1.395238731 -0.487346573
N -1.643844089 2.198124515 -1.778016344
H 6.279171687 0.222976911 -1.496994057
H 4.127640977 -2.116043410 -0.036399035
H 0.712791239 -0.691864356 2.741471723
H -0.062685334 -3.075922161 0.523235816
H -4.354030394 -1.379973731 2.242826515
H -5.457570811 2.152889933 -0.684387465

