8

O -0.515552511 -2.520982107 -3.176480157
C -1.966999199 -0.745150380 -2.149308505
C -3.644592492 -0.135149471 -0.510178640
H -4.925804808 -0.551548770 1.004761844
C -2.661661974 1.958775716 -2.243049749
H -3.859067847 2.661590259 -3.769468732
H -1.370186272 3.380970331 -1.489855919
H 0.480385407 -1.771913889 -4.494883530

