15

C -3.054034465 -1.624954197 -1.355705962
O -1.464657423 -3.661684649 -0.538580733
C -0.219789472 -1.987895110 1.252978579
C 2.155114273 -1.080068261 0.032202993
C 3.069963609 1.373907974 0.254767150
C 1.587825047 3.483214587 0.083454425
C -1.812022004 0.146755054 0.481922265
H -2.927917885 -1.248083055 -3.383525449
H -5.030713861 -2.009822736 -0.856943592
H -0.101965049 -2.823947005 3.139343032
H 3.234663048 -2.527724101 -0.955566981
H 5.099194531 1.603534908 0.551249967
H 2.172974660 5.276151452 0.895026184
H 0.053751049 3.530137053 -1.253338081
H -2.725763204 1.563526665 1.622319957

