10

O 3.837701205 -2.133319589 -0.754733805
C 1.851585272 -1.173628639 -0.331522591
C 1.265308173 1.543733561 0.363572988
O -1.278745184 1.481695439 1.142005150
C -2.359062020 -0.637247113 -0.015240244
O -0.381455032 -2.408876693 -0.406506829
H 1.558240742 2.761420371 -1.288513764
H 2.462667237 2.188720992 1.906526754
H -3.189095553 -0.162806614 -1.855610143
H -3.767144822 -1.459691733 1.240022485

