8

C 1.726535707 -3.506183149 1.013892641
O 0.066126582 -3.425027652 -0.516962625
O 3.469595123 -1.731355529 1.384360371
C 3.287711950 0.434845937 -0.218508068
H 3.492695248 -0.112227395 -2.193726744
H 4.819885621 1.680042700 0.344779209
H 1.468691478 1.367312868 0.033771806
H 2.045390141 -5.070879725 2.339813874

