13

C -3.836601271 -0.074640743 0.035677330
N -2.483968495 1.191832069 -1.642789111
C -0.123982966 -0.515151039 -1.250313385
O 0.302359109 -2.205619112 -2.761340435
O 1.623635565 1.282801311 -0.434474643
C 3.884667853 0.142950959 0.432531306
H -5.016559264 0.869318275 1.434411544
H -0.926343879 -1.363768932 0.935673986
H -4.226144728 -2.045836589 -0.360199317
H -2.162974305 3.034320596 -1.267357241
H 3.512531174 -1.031522501 2.096529758
H 5.153421300 1.679127732 0.940321351
H 4.723542035 -1.020558612 -1.048602866

