9

O -3.520544180 0.530565535 1.610580014
C -2.333840582 -1.790124179 2.136106878
H -3.185337814 -3.448566798 1.280558622
H -1.656707133 -2.020009853 4.061760362
C -1.135525714 0.079825773 0.476048939
C 0.985291674 1.613719624 1.517798921
O 2.882266183 2.074172654 0.370502879
H 0.667917803 2.293910423 3.477163797
H -1.127573633 -0.212998647 -1.554888803

