18

C -5.104064337 0.530981898 -0.262718456
C -2.665113956 -0.714545642 0.618539562
C -0.386809231 -0.025513400 -1.008166091
C 2.034573046 -1.256873418 -0.115539008
C 4.404788059 -0.158604506 -0.626509274
O 4.921166116 0.966899234 2.704560855
H -5.566814990 -0.015849095 -2.199983136
H -6.697494538 0.002926581 0.935883122
H -4.944796518 2.590297412 -0.220254080
H -2.895140868 -2.771342680 0.616371214
H -2.272653348 -0.189142348 2.580313932
H -0.798166552 -0.540913600 -2.975385858
H -0.153910596 2.034934570 -1.002842316
H 2.911545430 -0.194162991 2.160376725
H 2.004276995 -3.302927269 0.065213107
H 4.536743326 1.644713646 -1.595467440
H 6.103989880 -1.293242275 -0.693350361
H 4.727306918 2.766541302 2.924623468

