10

O 4.241130143 -0.973007320 -1.692378076
C 2.923266116 -1.398972622 0.098108949
N 0.575389196 -2.589744724 -0.068166390
C -1.520985264 -1.497066472 -0.296716122
C -1.910125378 1.296211299 -0.330698047
N -0.232067325 2.730554000 0.562984202
H 3.533330275 -1.126697348 2.072998699
H -3.211916207 -2.664630734 -0.465607522
H -3.707342530 1.953238440 -1.115382858
H -0.723821042 4.584486539 0.445773675

