14

C -1.830546781 0.487535356 -1.834124146
C -0.636272638 1.145345335 0.392370657
O 0.420128976 3.525718987 0.603446054
C -0.110012825 -0.734845572 2.437312687
C 2.072906481 -1.336974449 0.779319577
O 2.057702217 -3.074153339 -0.851075293
H -3.100638871 -1.115445635 -1.820677705
H -0.046197039 -0.922881296 -3.524564459
H -2.312210701 1.999579910 -3.126991631
H -0.150892420 4.276162490 2.152013270
H 0.362503989 0.097960983 4.253718648
H -1.491329187 -2.245835489 2.585712672
H 3.678785121 -0.038033308 0.877543213
H 1.065384995 -2.123331517 -2.963043415

