8

O -4.308316785 2.337059674 -0.301641542
C -2.801037931 1.499632285 1.180384675
C -1.038927846 -0.548863073 0.465810044
O 1.073470452 0.376922883 -0.365420782
C 2.851301452 -1.493691364 -1.160130212
O 4.852537386 -0.886626446 -1.878131426
H -2.773703118 2.038833490 3.210345863
H 2.002699395 -3.379830732 -0.960055686

