14

C -1.987967203 3.367589067 0.188584841
C -1.723841468 -4.950169539 1.160332186
O -0.277222445 -4.085605890 -0.599595700
C 1.827068646 -2.423335007 -0.099242274
C 1.114869306 0.269414720 -0.679260071
N 2.477610417 1.587945328 -2.119264014
O -0.996752863 0.912384453 0.576310532
H -3.719403537 3.461021322 1.287996792
H -2.422642328 3.680840784 -1.806254238
H -0.670799389 4.814075677 0.853466326
H -0.956898766 -4.231147400 3.006718481
H 3.372357829 -2.986071882 -1.326901604
H 2.353097553 -2.608345657 1.891106135
H 1.868426530 3.399137818 -2.302478650

