14

C -2.848252304 2.114558312 -0.198427366
C -1.785423145 -1.398358404 1.483557424
O -0.853852586 -2.903529098 -0.466246401
C 1.779602864 -2.541167197 -0.609825864
C 2.058932145 0.272624401 -0.248472661
N 3.771365865 1.688816396 -1.064955403
O 0.010969426 1.007364450 1.174416806
H -4.231445428 2.483776669 1.252423435
H -3.524361842 0.923199336 -1.713715351
H -1.878547298 3.809696239 -0.857265375
H -1.135680047 -2.151610796 3.318049916
H 2.473874126 -3.158903550 -2.441745871
H 2.795779069 -3.543777720 0.901127335
H 3.514010754 3.511475006 -0.512413903

