12

C -2.860828507 0.255437909 -0.051791837
C -0.170103187 -0.172136249 -0.725324224
C 1.951823054 0.928704978 0.620199384
O 4.145468540 -0.082481689 0.229347046
H -3.051310292 1.160776990 1.788112395
H -3.802677456 -1.580128968 0.030762833
H -3.851030804 1.362352564 -1.484558299
H 1.388062760 -3.300179078 0.136794062
H 0.256784981 -0.765938728 -2.643012305
H 1.450931643 1.615729518 2.527254145
H 1.488243114 2.619407963 -0.729793899
H 2.856029698 -2.661541655 0.232729599

