10

C -2.873778119 -0.437676784 -0.033867747
C -0.346528679 0.682779686 -0.012458379
C 1.423214066 2.190570826 -0.008962952
N 4.638881568 0.232362973 0.058409753
N 3.806261567 -1.786028972 0.076304495
O 1.741900862 -2.764797973 0.063795888
H -3.176640878 -1.583910612 1.649950096
H -3.119985491 -1.647018677 -1.682366666
H -4.297060102 1.052764534 -0.087382939
H 2.220767327 4.042840084 -0.022625974

