14

C -2.295088214 -1.343283489 -0.680791638
C 0.269423016 -0.137192057 -1.194407992
C -0.246051563 2.615588297 2.672829216
C 0.964182545 1.985738252 0.574987440
C 2.328475801 -2.122362522 -0.966162865
O 3.904799087 -2.545209926 -2.535410657
H -3.793078875 0.070675474 -0.752576872
H -2.709502092 -2.789075265 -2.090628786
H -2.352648573 -2.239699472 1.178490451
H 0.354785667 0.571280705 -3.133199060
H 0.413772013 4.159792437 3.842289611
H -1.937866350 1.646523588 3.299555279
H 2.652880247 3.027978070 0.044759486
H 2.293798136 -3.190579536 0.843989312

