14

C -2.737342369 -1.311817697 -0.846029025
C -0.697456754 0.388601844 -1.728755096
C 0.395007808 2.068783382 2.335118850
C 1.339505794 1.328451274 -0.156652570
C 2.876667341 -1.136003228 0.221517929
O 5.104119536 -1.256375324 -0.153006324
H -4.500342798 -0.293069140 -0.466194679
H -3.186217651 -2.720250646 -2.291640673
H -2.238559041 -2.221080889 0.945913523
H -0.873760926 1.118483918 -3.641361987
H 1.236218145 1.264941169 4.024343861
H -1.525377800 2.760638005 2.508506607
H 2.594759396 2.630938448 -1.146237437
H 1.760310820 -2.761022621 0.888039470

