11

C -1.145021153 1.422576491 0.715998539
O -2.044846164 -1.075451074 -0.471440578
C 0.705509085 -2.014954117 -0.361238194
C 1.708085820 0.793703851 0.011810637
O 3.446624424 1.227122307 1.617793855
H -1.520180506 1.203464429 2.724829755
H -2.485117996 -0.766115115 -2.213454427
H -2.187620907 2.984083210 -0.128989814
H 1.103222603 -3.133454854 -2.043669696
H 0.804386718 -3.116019088 1.371290949
H 1.959283202 1.551546161 -1.971899429

