11

C -2.567272233 2.002780199 0.605662061
O -1.739911604 -0.820776596 -1.007000772
C 0.629525409 -1.764166182 -0.168199552
C 2.794747619 0.073510875 -0.541768039
O 4.737985496 -0.101298731 0.598421651
H -1.575388212 1.683860249 2.397459554
H -1.541789373 0.889906179 -1.880702304
H -4.561860848 1.559316998 0.916548200
H 1.050437526 -3.463132562 -1.270584459
H 0.488708177 -2.281941219 1.823206329
H 2.500239282 1.548950754 -2.003226080

