11

N 3.563471198 -1.992655614 -0.885621622
C 1.296166834 -1.224343805 -0.761425439
C -0.951040615 -1.159142641 1.940676032
O -2.667733494 0.371211526 1.028864242
C -1.251821991 2.331041917 -0.228652949
O 0.492066126 1.107061392 -1.760937623
H 4.759193136 -0.546586463 -1.290139968
H -0.181468699 -2.750155562 -0.999738366
H -1.858003481 -2.928457553 2.557348242
H -2.552694810 3.423705788 -1.384537703
H -0.322755452 3.479580530 1.219947735

