16

C -3.708557416 -0.295591603 0.632654398
C -1.774934806 -0.703938080 -1.389555700
O -0.569282414 1.513107846 -2.498326653
C 0.909842185 -0.197329265 -1.299523328
C 3.216464097 -1.400605987 -1.881091815
C 1.553685293 1.649462093 2.206946418
H -5.560890509 -0.027871212 -0.231635353
H -3.276371571 1.348486490 1.783583326
H -3.808302169 -1.959167834 1.849258207
H -2.291546641 -2.090885033 -2.819627356
H 3.193748040 -3.437705692 -2.037921792
H 4.591618686 -0.325336308 -2.944469372
H 2.746439132 -0.093119278 0.525818014
H 0.428546762 0.728196154 3.659444606
H 0.858462271 3.521150555 1.732814341
H 3.518716323 1.796966461 2.863571690

