13

C -4.010567153 0.161314165 -0.333703788
O -2.168433629 -1.372849614 0.845962224
C 0.220565961 -0.639463006 0.464897609
C 1.305972358 1.284380121 -0.813456704
N 3.894005481 0.935118860 -0.436002978
C 4.491511390 -1.083514951 0.997285860
N 2.148722066 -2.020140565 1.525424458
H -3.912573779 2.100005966 0.379538774
H -5.839977150 -0.651639494 0.128931176
H -3.751076953 0.167065736 -2.385451535
H 0.511787723 2.801507811 -1.905488954
H 5.225879371 2.071759965 -1.157474750
H 1.865472283 -3.567499565 2.584726877

