13

C 5.069085752 -1.212959963 0.041061500
C 3.290452771 0.459808085 0.080430448
C 1.077478202 1.583661943 0.979936474
N -1.104620188 0.312577009 1.404056760
C -1.955254060 -1.904224160 0.116510970
C -3.449425584 0.489950653 0.023314666
H 6.018967095 -1.628432465 -1.735242941
H 1.001146306 3.608326569 1.294665635
H 2.619607499 1.826645252 -1.614764889
H -2.586360413 -3.443337303 1.307562298
H -0.894840765 -2.457355614 -1.549578616
H -5.147309132 0.680616025 1.150118160
H -3.412294828 1.557800550 -1.726782146

