10

O 3.551277589 1.551807926 1.382802084
C 2.046129326 0.323428289 -0.056557613
O 1.068252049 1.224546932 -2.230115537
C -0.999510181 1.121976925 -0.314548391
C -1.297626269 -1.709416432 -0.041788610
O 1.411374157 -2.141696140 0.322998736
H 1.208375109 2.078714346 1.690177357
H -2.442289413 2.534814448 -0.627400166
H -2.293253196 -2.295587631 1.660660931
H -1.965883864 -2.719374210 -1.709810157

