11

N 2.966757407 -1.050977704 0.604911613
C 0.434471790 -0.386135147 0.253446307
C -2.054378510 -1.545042064 1.047743834
O -3.316823370 0.571125388 -0.250357644
C -0.971100530 1.415039583 -0.843742041
O -0.778506881 3.529101275 -2.183349389
H 3.986633658 0.122610854 1.701573256
H 3.918421990 -1.546365061 -0.966472232
H 0.978999434 3.892047593 -2.457061780
H -2.610470465 -3.325568474 0.170755501
H -2.533608728 -1.513552234 3.052193456

