11

N 2.948779308 -0.846311653 0.618292933
C 0.462391662 -0.304532596 -0.121648039
C -2.022928856 -1.502731493 0.669152247
O -3.254316748 0.974137528 0.238087993
C -0.971349728 1.910299157 -0.358999813
O -0.431887098 3.951016364 -1.529213718
H 3.779085680 0.528208026 1.643554809
H 4.101087264 -1.430556843 -0.777832041
H 0.451033765 1.739630262 -2.404067869
H -2.896781812 -2.904481104 -0.559233304
H -2.154343907 -2.033226673 2.655258448

