17

C 2.773226057 -1.384858673 -0.519522958
C 1.489679022 1.119390759 0.247995279
C -0.087927161 2.402788279 -1.834371190
C -2.831171239 2.333418720 -1.295188976
C -3.064610789 0.751548842 1.003299555
C -0.522664061 -0.409632190 1.721024151
C 0.358949433 -2.811234874 0.297655864
H 3.371043789 -1.565897667 -2.486080944
H 4.376294863 -1.836841572 0.693881128
H 2.638748176 2.478148308 1.288049723
H -0.116484646 1.244324730 -3.580139773
H 0.581209836 4.239589770 -2.494572107
H -0.877046499 -3.277565500 -1.288238885
H -3.582523020 2.265880569 2.352946960
H -4.707476888 -0.499812415 0.993120280
H -0.212834562 -0.539846339 3.753820911
H 0.622408077 -4.514933865 1.423111038

