12

N 3.152445127 -0.705812254 1.284548382
C 1.243350614 -0.238773132 -0.424570664
C -2.600176031 -1.965559965 -1.849478719
O -2.870948557 0.563733120 -1.238853292
C -1.041512103 1.182850182 0.456223123
N -1.204405135 2.523171770 2.403240585
H 4.920780801 -0.224977205 0.797605493
H 2.713268184 -0.346439579 3.101474433
H 1.887735978 0.408699781 -2.268535313
H -2.784127036 -2.014021141 -3.940039796
H -0.132513813 -2.199656402 -0.978263140
H -3.002551843 3.113227017 2.721895483

