13

C -3.016742099 0.613501589 -0.207880777
C -0.755084066 1.461744429 1.316757233
H -0.979394481 3.354412593 2.094814529
C 0.770016190 -0.243853831 2.971684679
H 1.338049174 0.013549582 4.910254611
C 1.877532081 -1.952963957 1.022793742
H 3.669060250 -2.828842284 1.503511458
H 0.666587379 -3.138954108 -0.136464380
C 1.920781865 0.842023562 0.659086073
H 3.530369546 2.079609547 0.504236737
H -4.714101512 0.590484215 0.966124938
H -2.767928606 -1.276454042 -0.988006303
H -3.350844412 1.904911775 -1.782587705

