16

C -3.613112017 -0.180416556 0.302670479
C -1.156506058 1.253171672 0.078426091
C 0.954485718 0.543470569 1.822212257
C 1.897118393 -2.071438504 1.096106650
C 2.729080826 0.193992916 -0.220924385
O 1.624514288 0.468098937 -3.885186508
H -4.456337313 -0.036444880 2.193968780
H -3.363169262 -2.198917519 -0.078232243
H -4.996693594 0.507313589 -1.064911240
H 0.035707887 0.875115123 -2.572259088
H -1.340224872 3.303347544 -0.000659118
H 1.356079221 1.358126815 3.666529983
H 3.354816843 -2.947372256 2.246498197
H 0.594478813 -3.393948384 0.233232134
H 4.575470655 0.867534487 -0.739623045
H 2.157174131 2.024356412 -4.675517877

