12

O -2.079688292 -1.288113974 1.483619785
C -0.612953985 -2.971184487 -0.001929127
C -1.169062154 1.138641985 0.911311145
C 1.568667117 1.737899140 1.155034849
C 0.577858142 1.205709235 -1.464038632
C 0.331555548 -1.473121960 -1.990267359
N -1.312147586 -3.032284511 -2.776146383
H 0.166353611 -4.593524532 0.955000309
H -2.590852954 2.585486888 1.144802908
H 2.789183736 0.345546532 2.023180965
H 2.061665577 3.681784003 1.550443336
H 0.396218083 2.653582658 -2.892693125

