12

O -3.213686805 -1.527329812 1.203400519
C -0.996692543 -2.362455306 0.657797488
C -0.950954065 1.057489794 0.990504408
C 1.809170974 1.627381607 0.905025689
C 0.344654789 1.266352474 -1.534281151
C 0.178123846 -1.456062948 -2.021612624
N 0.052117834 -3.319647925 -3.319674948
H -0.365302201 -4.216396916 1.348419500
H -2.276455439 2.349208496 1.847413267
H 3.254891754 0.285320299 1.427087967
H 2.181532530 3.573910650 1.428289039
H 0.057048885 2.743594849 -2.912098080

