13

N 4.185920622 0.543595688 3.251833780
C 3.271628264 0.511137280 1.285251795
C 2.102433981 0.357341938 -1.200011673
C 0.185618934 -1.568575768 -2.018119692
C -1.392533342 -2.072770402 0.401865397
C -2.116719838 0.715947838 0.625581683
N -0.387465514 1.479086899 -1.422425275
H 3.373633564 0.974085485 -2.686694855
H -0.735454479 2.855665378 -2.689676711
H -2.997104708 -3.305793246 0.047158286
H -0.316829063 -2.824140627 1.995902711
H -4.046436517 1.084997328 0.023448704
H -1.744141038 1.698647904 2.402063777

