13

N 4.169880532 0.358598776 3.271599710
C 3.238003933 0.465253766 1.317373114
C 2.108995261 0.560016161 -1.170319975
C 0.206989413 -1.371891580 -1.988046591
C -1.446655703 -1.867663364 0.355499984
C -1.970270655 0.949470517 0.721779136
N -0.305060038 1.906412973 -1.384366758
H 3.449054782 1.167984556 -2.598499674
H -0.955116716 0.556668341 -3.134707194
H -3.117721145 -2.975902963 -0.092022632
H -0.433127458 -2.794765193 1.893764828
H -3.906079924 1.483459291 0.285580098
H -1.432964410 1.803916742 2.517490422

