9

C 4.969628653 -0.194931656 0.871815019
C 2.796151874 -0.409653506 0.230656720
C 0.298119093 -0.728790757 -0.569269186
C -3.807814676 0.831391906 -0.067218673
O -1.422944591 0.767428210 0.378270636
H 6.886200473 0.006012787 1.444129895
H -0.290765205 -2.138449364 -1.927818014
H -4.632638234 -0.488258554 -1.395045865
H -4.846933555 2.249029409 0.956231579

