14

O 3.732654410 1.977241174 4.349222004
C 2.140789846 1.624334065 2.775390436
C 2.558983705 0.084090469 0.394900188
C 0.747249620 -2.086236174 0.296996633
C -1.580996900 -2.092704404 -0.670748726
C -2.843945996 0.010232659 -1.968249461
N -2.216134474 2.309881444 -1.693150785
H 4.509355884 -0.576147676 0.386476960
H 2.219141765 1.364057116 -1.190992010
H 1.414802253 -3.832077153 1.144552708
H -2.644107345 -3.845167343 -0.611641135
H 0.217774193 2.422550638 2.960024615
H -4.397331200 -0.556470449 -3.215737705
H -3.301915528 3.450772732 -2.793642885

