14

O 1.434522697 3.980276506 1.845894192
C 0.803665882 1.955663223 0.931346002
C 2.515182197 -0.348317343 0.398083129
C 0.959750022 -2.588406344 -0.241888024
C -1.499713827 -2.233382836 -0.680915188
C -2.384153274 0.376102572 -0.595438359
N -0.864404363 2.149928259 -1.676074350
H 3.780153545 -0.716904115 1.986079877
H 3.652315482 0.269832708 -1.211655466
H 1.760802319 -4.466464638 -0.096675819
H -2.841680611 -3.760494725 -0.899903209
H -1.011654752 0.864541179 2.110081343
H -4.365047837 0.759822516 -0.190618828
H -1.651019473 3.895915560 -1.543540034

