15

C 1.315126702 2.028463108 0.149301044
C 2.355249762 -0.705954380 0.041176452
C 1.567587706 -2.106315195 2.404715516
O -0.807966105 -1.805012443 2.945601167
C -2.537340219 -0.273666698 1.425900104
C -1.182774536 0.873921364 -0.803670776
C 0.399075972 -1.213592737 -2.076751412
H 1.315179179 2.989341391 1.975048185
H 2.205072168 3.228414291 -1.267336907
H 4.349998380 -1.010354356 -0.338027954
H -0.408579915 -3.107518930 -2.210466524
H -3.296064388 1.149721884 2.710438281
H -4.057872194 -1.546795503 0.861307631
H -2.464717212 2.017913788 -1.941764552
H 1.113330672 -0.629326232 -3.917210506

