15

C 1.303821075 2.170295614 0.312530163
C 2.548050430 -0.405869783 -0.089360575
C 1.178305428 -2.585082127 1.150456251
O -0.905524369 -1.911220966 2.548456514
C -2.597361265 -0.163820452 1.365129327
C -1.131311416 0.999509142 -0.791194616
C 0.482030093 -1.158326865 -1.902787212
H 1.208961605 2.883836149 2.246428069
H 2.109404519 3.607509697 -0.921384009
H 4.551842351 -0.662109975 -0.426394382
H 0.122051155 -3.391245358 -1.032432650
H -3.198738655 1.234737828 2.758715171
H -4.253997590 -1.215933730 0.700638864
H -2.286200946 2.111519670 -2.077482131
H 0.733977299 -1.624553764 -3.883059054

