11

C -3.288998362 -0.475224187 0.323910566
C -0.956817413 0.375624093 -0.089766243
O -0.364490772 2.744558156 -0.832579221
N 1.198054162 -1.093394629 0.198887420
C 3.653361294 -0.373485131 -0.198643154
O 5.407692642 -1.792974944 0.108693966
H -1.894235011 3.699525621 -1.019654870
H -4.907269108 0.745257849 0.076830519
H -3.613704409 -2.401209999 0.912454467
H 0.953256224 -2.893890626 0.766887730
H 3.857308002 1.595391397 -0.815378990

