11

C -3.334960621 -0.085996371 -0.113669596
C -0.723571390 0.507127319 -0.051528561
O -0.390455552 2.832822104 -0.665554644
N 1.279532104 -1.018789810 0.385329821
C 3.775011790 -0.381205626 -0.159595988
O 5.502344829 -1.755153134 0.330472508
H -2.635739278 2.426757036 -1.243940019
H -4.372494530 0.870171127 1.381958302
H -3.974437743 -1.996122713 -0.493437840
H 0.975748519 -2.746947884 1.128521727
H 3.943177213 1.477515516 -1.066913518

