8

N -2.657352700 0.381524650 -0.328794582
C -0.334528918 0.555200288 0.562411200
O 1.085832890 -2.368354767 0.656767360
C 1.806398859 1.868376679 0.795544690
C 2.718764433 -0.575046551 0.166043942
H -3.424309669 1.897322332 -1.177390404
H -3.786287918 -1.034205855 0.238599466
H 4.401599562 -1.054738410 -0.931498768

