11

N 4.917864841 -1.533895665 1.485250392
C 3.006650376 -1.183440929 0.523345458
C 0.579611052 -0.712444248 -0.665798513
C -1.811409128 -0.970296149 0.981567591
O -2.639475002 1.504301458 0.277419959
C -0.281764363 2.060275854 -0.921099227
H 0.465892417 -1.762179910 -2.431491726
H -1.421614564 -1.116645384 3.005290548
H -3.146598258 -2.434984431 0.414569667
H 0.854920603 3.391009766 0.176560513
H -0.524077992 2.758299658 -2.845614681

