11

N 4.894358972 -2.405961110 0.088516397
C 2.917844473 -1.284614277 0.294005990
C 0.591526758 -0.210938109 0.141780898
C -1.999498029 -0.801722828 1.157597904
O -2.894927235 1.569151945 0.178856115
C -0.453614375 2.265857156 -0.788832382
H 2.568014688 -2.322613474 -1.637063430
H -2.159293081 -0.898114734 3.219866152
H -2.992934139 -2.409399618 0.315509146
H 0.291112309 3.963058436 0.133824168
H -0.492548478 2.558867147 -2.836768665

