14

O 4.385400811 0.926621819 -0.525932531
C 2.819050252 -1.009651510 0.408058086
C 0.365816074 -1.140734479 -1.044319556
H 0.742501513 -1.545721401 -3.036989399
C -1.793670117 -2.642056387 0.170974332
H -1.310605324 -3.585459693 1.936389982
H -2.746920937 -3.968127211 -1.076460925
C -3.081107853 -0.060514586 0.438481732
H -3.347868660 0.612655975 2.373342264
H -4.843949450 0.175690124 -0.610211009
O -1.013992324 1.200067438 -0.792523641
H 2.404249982 -0.727464320 2.424753454
H 3.853342222 -2.786564878 0.210886444
H 3.400238187 2.453672424 -0.520712919

