9

C -0.592143338 2.299079637 -0.304696152
C 2.044150613 2.851544566 -0.623713348
H 2.652389882 4.807604499 -0.550950332
H 3.458470721 1.416056369 -0.255570889
O 0.315810066 2.277876948 -2.693424737
C -2.679351190 1.272290522 1.016751305
N -3.961449297 -0.426083447 1.993023997
H -5.599548353 0.250157144 2.739667374
O -2.686673029 3.817504247 0.567793574

