14

C 0.945984105 -2.890619774 -0.739834373
C 0.136851377 1.058870712 -0.289230010
C 2.515461914 2.355774236 0.049429283
O 1.040237729 2.168748703 -2.285645990
C -2.550477443 1.252395750 0.830978415
O -3.051310651 3.470407554 1.308060732
N -3.552655899 -0.963550337 1.014232905
H 1.387122451 -2.640406770 -2.727808096
H 2.605765463 -2.724622584 0.455601120
H 0.236275764 -4.822710100 -0.481024815
H 2.482136745 4.217827533 0.898205384
H 4.269199511 1.305918576 0.023071175
H -1.115162686 -2.164659298 0.018610987
H -5.300195345 -1.002188320 1.780622957

