18

C -3.788941188 0.762308243 1.211809290
C -2.509871783 -1.815128392 1.099110294
C 0.375835648 -1.703693113 1.088673696
C 1.486394735 -0.423577802 -1.205603448
C 4.166229525 0.488919902 -1.165105086
C 2.033925777 2.358114284 -1.203828371
H -3.334055839 1.906428015 -0.442461042
H -3.185564203 1.816740782 2.883139690
H -5.841101820 0.569957084 1.300284830
H -3.121168799 -2.953955797 2.712941356
H -3.150483119 -2.828004247 -0.588752451
H 1.121724458 -3.630304632 1.206564789
H 1.036615993 -0.725042561 2.791763911
H 0.841248604 -1.196104569 -2.994736748
H 5.210642963 0.274169157 0.582514881
H 5.298440073 0.278389199 -2.854602785
H 1.711060740 3.421624860 -2.920787816
H 1.649068255 3.399159569 0.516007916

