19

C 4.758211896 -0.382447497 0.079603844
C 2.010655009 -0.937535555 0.580465057
O 1.520134925 -1.914779566 3.075254350
C 0.342022873 1.260187715 1.133731437
C -2.118046274 2.517061095 -2.280264579
C -2.304913732 1.034686866 0.240070618
C -3.501831129 -1.562194824 -0.169605603
H 4.973236386 0.421200886 -1.810354112
H 5.886901487 -2.106443356 0.188617609
H 5.466215741 1.001002196 1.436255992
H 1.308628860 -2.394668220 -0.706873600
H 2.177752776 -0.686451537 4.254713248
H -1.378134441 4.419183388 -2.005589013
H -0.913864392 1.530865036 -3.638241860
H -4.005120149 2.655735453 -3.097912620
H -3.521343175 2.148864797 1.485381482
H -2.609306866 -2.601391389 -1.712603493
H -5.496495087 -1.341867706 -0.651921611
H -3.376501393 -2.711905465 1.536162486

