11

O -0.596740720 3.886703183 -2.668735427
C -1.026849095 2.161512451 -1.321472100
O -3.319696339 1.190674422 -0.622131496
C -2.202378458 -0.691527606 1.043782307
C 0.392510327 0.206131023 0.221174509
C 2.771041477 -1.067946877 -0.294688541
O 2.484726124 0.661774039 1.743000456
H -2.756442832 -2.593180700 0.486369036
H -2.667000507 -0.310312097 3.012127161
H 3.938791707 -0.408136415 -1.846074982
H 2.982038337 -3.035691422 0.246649057

