9

O 0.100850601 3.160366878 -0.355028233
C 0.146867171 0.894824815 0.779316591
C -2.311210375 -0.728245627 0.582896681
O -3.843492082 -1.077259675 -0.912169345
C 1.792214083 -1.498588325 -0.149865713
N 3.534494176 -1.540693407 -1.565675756
H 0.042891378 2.937453499 -2.164645295
H 0.618606590 1.109158422 2.775423090
H 0.666418343 -3.044681284 0.955975824

