12

N 2.893962870 -1.793798373 3.479577053
C 2.114415789 -1.912354612 1.461405469
C 1.076038288 -2.085787138 -1.087342705
C -1.718356443 -1.404903716 -1.201646286
N -2.740318574 0.553122761 -0.331132892
C -1.353854522 2.478538896 0.823339122
N 0.234158515 3.772758159 -0.399162484
H 2.132087544 -0.802273494 -2.311632653
H -2.928602495 -2.758832844 -2.171750042
H 1.354181671 -4.005816211 -1.779791629
H -1.905045964 2.802980248 2.787001310
H 0.949452130 5.173313388 0.700756519

