16

C -1.647607818 2.409341698 -0.224237944
C 0.039380607 0.090639939 0.018126253
C -1.209573309 -1.941850327 1.664307347
C 0.518106892 -1.087886474 -2.550100141
O -0.284292231 -0.327483944 -4.527727821
C 2.623845947 0.789372825 1.128054228
H -3.470431326 1.915009073 -1.049680898
H -0.783891372 3.831569346 -1.440562621
H -1.976625785 3.249540181 1.632124820
H 1.730857227 -2.807394063 -2.490543343
H -1.468621653 -1.234167849 3.585261120
H -0.048442695 -3.646739429 1.772468052
H -3.060687926 -2.472967719 0.922912760
H 2.393663453 1.526084104 3.041832144
H 3.870867354 -0.853907388 1.232385516
H 3.559835706 2.237304925 -0.005668706

