16

C -2.988987238 1.117929548 -1.539858507
C -0.871513872 -0.356902104 -0.270173539
C -1.382601452 -0.723272057 2.558913767
C 1.667373976 0.968656509 -0.566584320
O 1.821948735 3.235521834 -0.738935714
C 3.984216925 -0.694765898 -0.606065876
H -2.631843343 1.362012375 -3.555859193
H -3.158323517 2.994764792 -0.706673610
H -4.788189661 0.133528917 -1.316971150
H -0.706658020 -2.228106154 -1.141318612
H -1.533307318 1.107402035 3.499179598
H 0.112314644 -1.799217238 3.488776599
H -3.156003859 -1.737825441 2.837292251
H 3.899559821 -2.128710074 0.874576305
H 4.048478744 -1.694376839 -2.413392175
H 5.683535417 0.443359777 -0.402905805

