13

N 7.590802074 1.461716064 1.772518772
C 5.701653884 1.029519353 0.798943286
C 3.391924960 0.482384171 -0.542535004
C -0.882178825 -0.254637742 -0.744660979
C -2.833855727 -1.850379570 0.574383937
C -3.287183904 0.905188886 0.238649015
N 1.333649722 0.281158423 0.644265707
H 3.576814970 0.266527880 -2.589892614
H -0.686364175 -0.470431010 -2.781219712
H -3.883299144 -3.168913920 -0.581668095
H -2.338778191 -2.517514138 2.440571652
H -4.653191292 1.516362711 -1.153068343
H -3.102132775 2.110771093 1.877242121

