13

N 4.920734163 -0.407010176 2.904878363
C 3.804647968 0.121593917 1.121402675
C 2.297676081 0.801838706 -1.117867829
C -0.341330421 -0.224751893 -1.354787234
C -1.562339105 -1.711899268 0.799294057
C -2.561548574 0.836344160 0.644609977
N 0.554746055 2.740833619 -1.037126559
H 3.333689610 0.447920593 -2.875045615
H -0.989221567 -0.664649616 -3.241241090
H -2.706880872 -3.253184858 0.094490898
H -0.361015773 -2.174430902 2.390257014
H -4.242482261 1.190068406 -0.462178085
H -2.167974388 2.186011106 2.108688426

