14

C -2.566207788 2.251126268 -0.012360056
C -0.520492633 0.503931754 -1.070912897
C 2.102446604 1.102862497 -0.166017410
C 3.128019378 -0.944208386 0.904389796
C 1.298766795 -3.025589116 0.810990196
C -0.813892135 -2.216030709 -0.315395422
H -2.230740243 4.206592563 -0.575516734
H -4.431632942 1.699581617 -0.698323137
H -0.554643235 0.625974481 -3.144974945
H -2.587188491 2.166853459 2.048577561
H 2.976550705 2.939023200 -0.373987231
H 4.998319647 -1.075025678 1.719814065
H 1.632182456 -4.904323895 1.545831062
H -2.509913622 -3.305772667 -0.656384785

