14

C -2.507875250 1.820732545 -0.078979535
C -0.565710510 0.516170584 -1.678459128
C 1.751412723 1.304658809 -0.172796425
C 2.784606044 -0.873097387 1.005648768
C 1.008858694 -2.800012396 0.903813505
C -1.042015035 -1.982571487 -0.484477364
H -2.351280354 3.848019506 0.176996794
H -4.440874421 1.134199371 -0.093710082
H -0.510735732 0.636627491 -3.742883705
H 0.167908308 1.909983195 1.518687641
H 2.856032249 2.949243331 -0.697872381
H 4.441424331 -0.862497932 2.204388333
H 1.100759534 -4.550331270 1.954447033
H -2.770937995 -3.026130844 -0.799073375

