16

C -3.649816111 -0.791648887 0.087972175
C -2.140921655 1.389910950 1.130864628
N -0.230055523 0.763255922 3.058786502
C 0.361178516 2.123848622 0.155324300
C 1.703216392 0.295152922 -1.502890135
C 4.154532215 -0.816213758 -0.944374663
O 1.938396985 -2.346032358 -0.868404781
H -4.650306437 -0.175862826 -1.607733785
H -5.063142053 -1.410700829 1.456502801
H -2.463938267 -2.397411441 -0.413111724
H -3.341682528 2.934373775 1.763948070
H 0.417716099 -1.032262914 2.797377229
H 1.198900003 2.363101347 2.574525985
H 1.254611397 0.616706055 -3.486389723
H 5.463935389 -1.259915972 -2.460411849
H 5.027431426 -0.450624885 0.880153605

