16

N 4.895923136 1.121959407 0.742484279
C 2.711963233 0.779660464 -0.104428855
C 1.534879740 -1.770426203 -0.446367087
C -1.158574703 -2.013126034 0.585688147
C -3.049744125 -0.211855968 -0.592000607
C -0.983337792 3.275878844 0.167473444
O 1.236556444 2.756602042 -1.005575560
H 5.342578255 2.994710330 0.721765114
H 1.526144538 -2.159561422 -2.480089737
H 2.773647107 -3.149421244 0.444440322
H -1.139813124 -1.768689091 2.636231703
H -1.795769509 -3.952010228 0.242996613
H -3.305628557 -0.568534290 -2.610568788
H -4.869435922 -0.243093405 0.372599360
H -0.943029234 2.657975704 2.151332496
H -2.828396857 2.189021477 -0.852202704

