10

O -0.517168586 -2.486076125 -2.532721237
C -0.207561452 0.808623087 2.981368353
C -0.660611611 2.664493445 0.828016402
N -0.191418069 1.844205381 -1.385389950
C 0.734373272 -0.704757995 -1.100798670
N 0.528638921 -1.131964203 1.652847764
H -2.299989861 -2.137439645 -2.469598318
H -1.362301560 4.567922201 1.122380079
H 2.727372665 -0.776750116 -1.641594048
H 1.036247837 -2.801204775 2.421236334

