13

C 0.429661662 0.044561934 -1.515369263
H 0.049786989 -1.621426249 -2.642541064
H -0.246806566 1.798675926 -2.325263758
C 2.748549238 0.102340915 0.028051794
C 5.246909434 -1.131450236 0.014595659
H 5.963960664 -1.864132713 -1.757331704
H 5.820496662 -2.187909487 1.671622609
C 5.005300805 1.718567526 0.274477032
H 5.560411653 2.867125395 -1.326531936
H 5.418853629 2.541030514 2.102889178
C 0.314025220 -0.226973134 1.342155625
H -0.436117779 1.349802023 2.410467843
H -0.142987620 -2.072293397 2.101228827

