19

C -5.008006232 0.964918102 0.417030676
C -3.690840175 -1.168024959 -0.900149761
C -0.070085237 -0.385303516 -1.743421034
C 2.126467839 -0.132816509 0.005423608
C 4.804030460 -0.891175754 -0.089631486
C 4.047842095 1.833206911 0.440356681
C -0.106470250 -1.006864787 1.354885217
H -7.010951555 0.567224880 0.052322699
H -4.622078520 2.799650192 -0.453913254
H -4.809128601 1.163562087 2.478565541
H -3.785974582 -2.894429481 0.235568761
H 0.064941251 -1.921436012 -3.077207911
H -0.724098397 1.386766162 -2.518289455
H 5.634076862 -1.303499444 -1.915367214
H 5.569027235 -1.982067535 1.465318525
H 4.386186673 3.212791150 -1.034589829
H 4.313193790 2.537000332 2.345117863
H -1.011597077 0.278877977 2.656499035
H -0.154763259 -2.979355228 1.885824823

