13

C -4.447205249 -0.079046639 -0.015207949
O -2.286892604 -1.325843490 0.965381161
C -0.079026268 -0.296553228 0.229162779
C 0.483748099 1.754497984 -1.259116863
N 3.121532212 1.648049466 -1.164116382
C 4.065428396 -0.231180704 0.208880537
N 2.070560650 -1.484128594 1.106670106
H -4.476467507 1.899046972 0.572326744
H -6.077691109 -1.079805211 0.740304310
H -4.451251493 -0.143067423 -2.078399026
H 4.218644632 2.904259950 -2.071249437
H 6.017951726 -0.683369602 0.552793004
H 2.127368331 -3.022428984 2.220177165

