12

C 3.025953304 0.662283187 -1.379928925
O 2.469461558 -0.792393004 1.624205450
C 0.598272117 0.102064618 -0.195904903
C -1.516125720 1.691912561 0.931548335
O -3.358919665 -0.156474388 0.188476087
C -1.486189624 -1.689185402 -1.033166090
H 2.963931624 -2.483585466 1.167130230
H 3.609781828 2.534085600 -0.685369216
H -1.814534395 3.507605565 -0.008883640
H -1.420944675 1.953495556 2.977740287
H -1.406833939 -3.606790543 -0.259353478
H -1.742510412 -1.770962564 -3.081908794

