15

C 3.094436223 -1.443223941 -1.487809270
C 2.367092071 1.242223430 -0.915447774
C 3.496053424 3.215657090 -1.823792427
C 0.177916467 1.856480400 0.839342948
C -2.304895212 0.926542923 -0.205623613
C -3.328960646 -1.545440890 0.464723149
O -4.297941735 0.699633379 1.560280116
H 4.763067793 -1.530126777 -2.689017952
H 3.500801493 -2.446500385 0.269321840
H 1.548489453 -2.415749967 -2.444737176
H 0.057476455 3.894728396 1.153596144
H 0.526800293 0.978256847 2.677514207
H -2.855024099 1.749055460 -2.009028050
H -4.597761165 -2.515102035 -0.824109714
H -2.270335788 -2.755906792 1.743706477

