12

C -3.611680531 -0.525766840 -0.002173695
C -0.961661631 -1.314967473 -0.002535370
C 1.009419357 -2.509754053 0.047912041
C 4.201570257 0.264498314 0.019408130
N 2.951677714 2.155503745 0.020738932
N 0.727129574 2.927372699 0.185126151
H -3.997018553 0.701515073 1.605247699
H -4.071819337 0.519595750 -1.717351676
H -4.848806462 -2.174144816 0.108287845
H 2.195464385 -4.138229358 0.078015907
H 6.054237699 -0.178754485 0.734798971
H 0.416832330 4.345936886 -1.079404362

