16

C 3.336605136 0.131137374 -0.423603143
C 0.710824412 1.020995347 0.391660007
C -1.054146378 1.120254062 -1.845567968
C -3.472908020 0.468238078 -1.902744505
O -0.509008182 -3.162024395 2.006498217
C -0.307479624 -0.561822455 2.578608851
H 4.082913824 1.316377984 -1.938389879
H 4.658762885 0.207620392 1.157634319
H 3.273463188 -1.815660067 -1.098739265
H 0.889210647 2.962889610 1.102231649
H -0.204662536 1.820707506 -3.582372523
H -1.505127212 -3.334604672 0.498996999
H -4.567013961 0.634471427 -3.623939524
H -4.473958083 -0.224156781 -0.252156191
H -2.127561990 0.198311941 3.222351048
H 0.995304634 -0.435806201 4.173074132

