16

C 3.563232091 0.517526274 -0.096337066
C 0.750232648 0.991759016 0.249582063
C -0.826522535 0.268247228 -2.003848499
C -3.393565393 0.175263613 -1.305508544
O -2.295926591 -2.317234973 1.172997754
C -0.492948458 -0.760521961 2.357155211
H 4.337349668 1.688831306 -1.609083049
H 4.611544525 0.943114083 1.629132741
H 3.916423416 -1.460097589 -0.580379207
H 0.450789745 2.964746870 0.793075706
H -0.188711944 0.249375667 -3.944717265
H -1.224828917 -2.072504914 -1.027506209
H -4.769096019 -0.679529338 -2.565368599
H -4.202604013 1.325805374 0.191551843
H -1.381039971 0.368085258 3.844215488
H 0.958505751 -1.946819400 3.228304082

