13

C 0.989500170 1.218840942 2.426234980
O 0.731147132 -1.439187373 2.536509930
C 0.242048141 -2.193474522 0.035927775
C -2.191858145 -1.417268534 -1.017964982
O -3.065787900 0.749667960 -0.072779041
C -0.379874314 2.002391161 0.166453011
C 1.086078516 0.125180939 -1.487628934
H 2.859612335 0.838108956 0.122123116
H 0.888185300 2.050623945 4.294983917
H 0.994439838 -4.033289711 -0.460008717
H -2.962868161 -2.182278519 -2.758961573
H -0.464155872 3.983608528 -0.343046651
H 1.363272294 0.296093552 -3.504481583

