15

C 3.658904390 0.742130560 -0.409970395
C 1.039668865 -0.377370408 -0.632166244
C -0.425886575 -0.806226650 1.887991205
O -0.950272895 1.892295415 1.928598755
C -1.200600152 1.530692126 -0.785234646
C -3.465654703 -0.256486914 -0.926886532
C -2.929801280 -1.870965585 0.918770159
H 5.011279464 -0.689340872 0.208698538
H 3.687145194 2.296581419 0.940762016
H 4.303962667 1.452827208 -2.237555200
H 0.969965636 -1.938300287 -1.976370445
H 0.433692486 -1.546046018 3.602605707
H -1.159354196 3.261413501 -1.893925474
H -5.041552952 -0.176977538 -2.218947690
H -3.931495966 -3.514225956 1.593630229

