12

C -5.049066333 1.404906513 -0.969225941
C -2.791928355 0.497311684 -0.508844154
C -0.614152732 -0.379211455 -0.065413871
C 1.663981634 -1.271825177 0.399255477
O 2.168081120 -3.780322714 0.592930560
C 3.968247076 0.304465454 0.771338111
H -5.362247016 3.422533856 -1.108731665
H 0.629998766 -4.714071012 0.340929837
H -6.653578305 0.160650777 -1.223620550
H 3.519376102 2.301659642 0.600214131
H 4.770606817 -0.060876053 2.637335813
H 5.392940174 -0.200096353 -0.633733961

