16

N 5.450047206 0.120908551 -0.243958125
C 3.110656064 0.281625809 -0.655258395
C 1.416079273 -1.990997058 -0.381646688
C -0.930434474 -1.564433961 1.277086779
C -2.998058471 -0.120908816 -0.019152998
C -3.891119492 2.102983589 0.717048282
O 2.012892313 2.471806482 -1.406929691
H 6.299645962 1.819660163 -0.552187460
H 0.826040636 -2.596811789 -2.271851537
H 2.583871512 -3.490089448 0.402287732
H -0.390564419 -0.614213714 3.029972695
H -1.670397500 -3.419407096 1.808033415
H 0.194380253 2.321232084 -1.422292239
H -3.791869356 -1.004628297 -1.699197228
H -3.157755957 3.047059013 2.383682713
H -5.398616930 3.043170788 -0.299476672

