10

O 4.998555352 2.266810749 0.361883101
C 4.108734872 0.180868881 0.294720874
N 1.523006515 -0.373138858 0.231720013
C 0.160116079 0.959421871 -1.221945157
N -2.432870036 0.712816108 -1.388563235
C -3.733666887 -0.479423669 0.121901546
N -5.223053191 -1.348587610 1.588263521
H 5.284318225 -1.535461927 0.371369621
H 0.939275652 2.371418920 -2.502757304
H -5.732915226 -3.173117389 1.735143050

