10

C 0.604521894 1.294907747 -1.187639277
C 2.150097106 -0.721405348 0.062926104
N 1.277096190 -3.038862458 0.350219976
N -1.161201082 -3.101908824 -0.086234968
C -2.105628714 -0.785792210 -0.041551865
C -0.686513520 1.412726521 1.030191794
H 1.180689412 2.707941594 -2.557165222
H 4.060024044 -0.249319108 0.623423294
H -4.034726583 -0.452438172 -0.638008144
H -1.376063377 2.968815413 2.172178821

