17

C     3.00485   0.44200   0.79459
C     1.61307  -0.05209   0.41008
N     0.65825   0.85985   0.21916
C    -0.60980   0.35254  -0.13542
C    -1.64118   0.45401   0.86837
N    -2.45949   0.44288   1.69841
C    -1.03539   0.58932  -1.49360
N    -1.35409   0.68928  -2.61039
C    -0.04580  -1.88625  -0.12006
C     1.33360  -1.64299   0.24600
H     3.20734   1.54971   0.91445
H     3.72033   0.05658   0.03675
H     3.28392  -0.04916   1.75179
H    -0.33334  -2.09696  -1.16713
H    -0.79163  -2.20010   0.63396
H     1.61835  -2.08664   1.25040
H     2.07524  -1.98177  -0.54421
17

C     3.01096   0.44545   0.79638
C     1.61927  -0.02274   0.41344
N     0.65485   0.85073   0.21778
C    -0.61521   0.36998  -0.13580
C    -1.64231   0.45720   0.86894
N    -2.46029   0.44138   1.69939
C    -1.03615   0.59254  -1.49429
N    -1.35427   0.68784  -2.61177
C    -0.04338  -1.90195  -0.12035
C     1.32974  -1.67061   0.24330
H     3.21315   1.54995   0.91590
H     3.72001   0.05591   0.03647
H     3.28354  -0.04980   1.75184
H    -0.33368  -2.09688  -1.16719
H    -0.79191  -2.20011   0.63390
H     1.61811  -2.08669   1.25056
H     2.07507  -1.98177  -0.54459
17

C     3.01706   0.44890   0.79817
C     1.62546   0.00660   0.41681
N     0.65145   0.84162   0.21641
C    -0.62062   0.38742  -0.13618
C    -1.64344   0.46040   0.86951
N    -2.46109   0.43988   1.70037
C    -1.03692   0.59576  -1.49498
N    -1.35445   0.68640  -2.61315
C    -0.04096  -1.91765  -0.12063
C     1.32588  -1.69824   0.24059
H     3.21897   1.55019   0.91735
H     3.71969   0.05524   0.03619
H     3.28315  -0.05043   1.75190
H    -0.33402  -2.09681  -1.16725
H    -0.79220  -2.20012   0.63384
H     1.61787  -2.08674   1.25072
H     2.07491  -1.98177  -0.54497
17

C     3.02316   0.45235   0.79996
C     1.63166   0.03595   0.42017
N     0.64805   0.83250   0.21503
C    -0.62602   0.40485  -0.13656
C    -1.64457   0.46359   0.87007
N    -2.46189   0.43839   1.70135
C    -1.03769   0.59898  -1.49566
N    -1.35464   0.68496  -2.61453
C    -0.03854  -1.93335  -0.12092
C     1.32201  -1.72586   0.23789
H     3.22479   1.55043   0.91881
H     3.71936   0.05456   0.03591
H     3.28277  -0.05107   1.75195
H    -0.33436  -2.09674  -1.16731
H    -0.79248  -2.20012   0.63377
H     1.61763  -2.08678   1.25088
H     2.07474  -1.98178  -0.54534
17

C     3.02926   0.45580   0.80175
C     1.63786   0.06530   0.42353
N     0.64465   0.82339   0.21365
C    -0.63143   0.42229  -0.13694
C    -1.64570   0.46678   0.87064
N    -2.46269   0.43689   1.70233
C    -1.03846   0.60220  -1.49635
N    -1.35482   0.68351  -2.61591
C    -0.03612  -1.94906  -0.12120
C     1.31815  -1.75349   0.23518
H     3.23060   1.55067   0.92026
H     3.71904   0.05389   0.03563
H     3.28238  -0.05170   1.75200
H    -0.33470  -2.09667  -1.16737
H    -0.79276  -2.20013   0.63371
H     1.61739  -2.08683   1.25104
H     2.07457  -1.98178  -0.54572
17

C     3.03536   0.45925   0.80354
C     1.64406   0.09465   0.42689
N     0.64125   0.81428   0.21227
C    -0.63683   0.43973  -0.13731
C    -1.64683   0.46998   0.87120
N    -2.46349   0.43539   1.70331
C    -1.03922   0.60542  -1.49704
N    -1.35500   0.68207  -2.61730
C    -0.03370  -1.96476  -0.12149
C     1.31429  -1.78111   0.23248
H     3.23642   1.55091   0.92171
H     3.71871   0.05322   0.03534
H     3.28200  -0.05234   1.75206
H    -0.33504  -2.09660  -1.16743
H    -0.79305  -2.20014   0.63364
H     1.61714  -2.08688   1.25120
H     2.07441  -1.98178  -0.54610
17

C     3.04146   0.46270   0.80533
C     1.65026   0.12400   0.43026
N     0.63785   0.80516   0.21089
C    -0.64224   0.45717  -0.13769
C    -1.64796   0.47317   0.87177
N    -2.46430   0.43389   1.70429
C    -1.03999   0.60864  -1.49772
N    -1.35518   0.68063  -2.61868
C    -0.03128  -1.98046  -0.12177
C     1.31042  -1.80874   0.22977
H     3.24224   1.55115   0.92316
H     3.71839   0.05255   0.03506
H     3.28162  -0.05297   1.75211
H    -0.33539  -2.09652  -1.16749
H    -0.79333  -2.20015   0.63358
H     1.61690  -2.08693   1.25136
H     2.07424  -1.98178  -0.54647
17

C     3.04756   0.46615   0.80712
C     1.65645   0.15335   0.43362
N     0.63445   0.79605   0.20951
C    -0.64765   0.47460  -0.13807
C    -1.64909   0.47636   0.87234
N    -2.46510   0.43240   1.70527
C    -1.04076   0.61186  -1.49841
N    -1.35536   0.67919  -2.62006
C    -0.02886  -1.99617  -0.12206
C     1.30656  -1.83636   0.22707
H     3.24806   1.55140   0.92462
H     3.71807   0.05187   0.03478
H     3.28123  -0.05361   1.75217
H    -0.33573  -2.09645  -1.16755
H    -0.79362  -2.20016   0.63351
H     1.61666  -2.08698   1.25152
H     2.07407  -1.98179  -0.54685
17

C     3.05366   0.46960   0.80892
C     1.66265   0.18269   0.43698
N     0.63105   0.78693   0.20814
C    -0.65305   0.49204  -0.13845
C    -1.65022   0.47955   0.87290
N    -2.46590   0.43090   1.70625
C    -1.04153   0.61508  -1.49910
N    -1.35554   0.67775  -2.62144
C    -0.02644  -2.01187  -0.12234
C     1.30269  -1.86399   0.22436
H     3.25387   1.55164   0.92607
H     3.71774   0.05120   0.03450
H     3.28085  -0.05424   1.75222
H    -0.33607  -2.09638  -1.16761
H    -0.79390  -2.20017   0.63345
H     1.61642  -2.08703   1.25168
H     2.07391  -1.98179  -0.54723
17

C     3.05976   0.47305   0.81071
C     1.66885   0.21204   0.44035
N     0.62765   0.77782   0.20676
C    -0.65846   0.50948  -0.13883
C    -1.65135   0.48275   0.87347
N    -2.46670   0.42940   1.70723
C    -1.04229   0.61830  -1.49978
N    -1.35572   0.67630  -2.62282
C    -0.02402  -2.02757  -0.12263
C     1.29883  -1.89162   0.22166
H     3.25969   1.55188   0.92752
H     3.71742   0.05053   0.03422
H     3.28047  -0.05488   1.75228
H    -0.33641  -2.09631  -1.16767
H    -0.79418  -2.20018   0.63338
H     1.61618  -2.08707   1.25184
H     2.07374  -1.98179  -0.54760
17

C     3.06586   0.47650   0.81250
C     1.67505   0.24139   0.44371
N     0.62425   0.76871   0.20538
C    -0.66387   0.52691  -0.13921
C    -1.65248   0.48594   0.87404
N    -2.46750   0.42791   1.70821
C    -1.04306   0.62152  -1.50047
N    -1.35591   0.67486  -2.62420
C    -0.02160  -2.04327  -0.12292
C     1.29497  -1.91924   0.21895
H     3.26551   1.55212   0.92898
H     3.71709   0.04985   0.03394
H     3.28008  -0.05551   1.75233
H    -0.33675  -2.09623  -1.16772
H    -0.79447  -2.20019   0.63332
H     1.61594  -2.08712   1.25200
H     2.07357  -1.98179  -0.54798
17

C     3.07196   0.47996   0.81429
C     1.68124   0.27074   0.44707
N     0.62085   0.75959   0.20400
C    -0.66927   0.54435  -0.13958
C    -1.65361   0.48913   0.87460
N    -2.46830   0.42641   1.70919
C    -1.04383   0.62474  -1.50116
N    -1.35609   0.67342  -2.62558
C    -0.01918  -2.05898  -0.12320
C     1.29110  -1.94687   0.21625
H     3.27132   1.55236   0.93043
H     3.71677   0.04918   0.03365
H     3.27970  -0.05615   1.75238
H    -0.33709  -2.09616  -1.16778
H    -0.79475  -2.20020   0.63326
H     1.61569  -2.08717   1.25216
H     2.07341  -1.98180  -0.54836
17

C     3.07806   0.48341   0.81608
C     1.68744   0.30009   0.45044
N     0.61745   0.75048   0.20262
C    -0.67468   0.56179  -0.13996
C    -1.65474   0.49233   0.87517
N    -2.46910   0.42491   1.71017
C    -1.04460   0.62796  -1.50184
N    -1.35627   0.67198  -2.62696
C    -0.01676  -2.07468  -0.12349
C     1.28724  -1.97449   0.21354
H     3.27714   1.55260   0.93188
H     3.71644   0.04851   0.03337
H     3.27932  -0.05679   1.75244
H    -0.33743  -2.09609  -1.16784
H    -0.79504  -2.20021   0.63319
H     1.61545  -2.08722   1.25232
H     2.07324  -1.98180  -0.54873
17

C     3.08417   0.48686   0.81787
C     1.69364   0.32944   0.45380
N     0.61405   0.74136   0.20124
C    -0.68008   0.57923  -0.14034
C    -1.65587   0.49552   0.87573
N    -2.46990   0.42341   1.71115
C    -1.04536   0.63118  -1.50253
N    -1.35645   0.67054  -2.62834
C    -0.01434  -2.09038  -0.12377
C     1.28337  -2.00212   0.21084
H     3.28296   1.55284   0.93333
H     3.71612   0.04784   0.03309
H     3.27893  -0.05742   1.75249
H    -0.33777  -2.09602  -1.16790
H    -0.79532  -2.20022   0.63313
H     1.61521  -2.08727   1.25248
H     2.07307  -1.98180  -0.54911
17

C     3.09027   0.49031   0.81966
C     1.69984   0.35879   0.45716
N     0.61065   0.73225   0.19986
C    -0.68549   0.59666  -0.14072
C    -1.65700   0.49871   0.87630
N    -2.47070   0.42192   1.71213
C    -1.04613   0.63440  -1.50322
N    -1.35663   0.66909  -2.62972
C    -0.01192  -2.10608  -0.12406
C     1.27951  -2.02974   0.20813
H     3.28877   1.55308   0.93479
H     3.71580   0.04716   0.03281
H     3.27855  -0.05806   1.75255
H    -0.33811  -2.09594  -1.16796
H    -0.79560  -2.20023   0.63306
H     1.61497  -2.08731   1.25264
H     2.07291  -1.98180  -0.54949
17

C     3.09637   0.49376   0.82145
C     1.70603   0.38813   0.46053
N     0.60725   0.72314   0.19849
C    -0.69090   0.61410  -0.14110
C    -1.65813   0.50191   0.87687
N    -2.47150   0.42042   1.71311
C    -1.04690   0.63762  -1.50390
N    -1.35681   0.66765  -2.63111
C    -0.00950  -2.12179  -0.12434
C     1.27565  -2.05737   0.20543
H     3.29459   1.55333   0.93624
H     3.71547   0.04649   0.03253
H     3.27816  -0.05869   1.75260
H    -0.33845  -2.09587  -1.16802
H    -0.79589  -2.20024   0.63300
H     1.61473  -2.08736   1.25280
H     2.07274  -1.98181  -0.54986
17

C     3.10247   0.49721   0.82325
C     1.71223   0.41748   0.46389
N     0.60385   0.71402   0.19711
C    -0.69630   0.63154  -0.14148
C    -1.65927   0.50510   0.87743
N    -2.47230   0.41892   1.71409
C    -1.04767   0.64084  -1.50459
N    -1.35699   0.66621  -2.63249
C    -0.00708  -2.13749  -0.12463
C     1.27178  -2.08499   0.20273
H     3.30041   1.55357   0.93769
H     3.71515   0.04582   0.03225
H     3.27778  -0.05933   1.75266
H    -0.33879  -2.09580  -1.16808
H    -0.79617  -2.20025   0.63293
H     1.61449  -2.08741   1.25296
H     2.07257  -1.98181  -0.55024
17

C     3.10857   0.50066   0.82504
C     1.71843   0.44683   0.46725
N     0.60045   0.70491   0.19573
C    -0.70171   0.64897  -0.14185
C    -1.66040   0.50829   0.87800
N    -2.47310   0.41743   1.71507
C    -1.04843   0.64406  -1.50528
N    -1.35718   0.66477  -2.63387
C    -0.00466  -2.15319  -0.12491
C     1.26792  -2.11262   0.20002
H     3.30623   1.55381   0.93915
H     3.71482   0.04515   0.03196
H     3.27740  -0.05996   1.75271
H    -0.33913  -2.09573  -1.16814
H    -0.79646  -2.20025   0.63287
H     1.61424  -2.08746   1.25312
H     2.07241  -1.98181  -0.55062
17

C     3.11467   0.50411   0.82683
C     1.72463   0.47618   0.47062
N     0.59705   0.69579   0.19435
C    -0.70711   0.66641  -0.14223
C    -1.66153   0.51149   0.87857
N    -2.47390   0.41593   1.71605
C    -1.04920   0.64728  -1.50596
N    -1.35736   0.66333  -2.63525
C    -0.00224  -2.16890  -0.12520
C     1.26405  -2.14024   0.19732
H     3.31204   1.55405   0.94060
H     3.71450   0.04447   0.03168
H     3.27701  -0.06060   1.75277
H    -0.33947  -2.09565  -1.16820
H    -0.79674  -2.20026   0.63281
H     1.61400  -2.08751   1.25328
H     2.07224  -1.98181  -0.55099
17

C     3.12077   0.50756   0.82862
C     1.73082   0.50553   0.47398
N     0.59365   0.68668   0.19297
C    -0.71252   0.68385  -0.14261
C    -1.66266   0.51468   0.87913
N    -2.47470   0.41443   1.71703
C    -1.04997   0.65050  -1.50665
N    -1.35754   0.66188  -2.63663
C     0.00018  -2.18460  -0.12548
C     1.26019  -2.16787   0.19461
H     3.31786   1.55429   0.94205
H     3.71418   0.04380   0.03140
H     3.27663  -0.06123   1.75282
H    -0.33981  -2.09558  -1.16826
H    -0.79702  -2.20027   0.63274
H     1.61376  -2.08755   1.25344
H     2.07207  -1.98182  -0.55137
17

C     3.12687   0.51101   0.83041
C     1.73702   0.53488   0.47734
N     0.59025   0.67757   0.19159
C    -0.71793   0.70129  -0.14299
C    -1.66379   0.51787   0.87970
N    -2.47550   0.41293   1.71801
C    -1.05074   0.65372  -1.50734
N    -1.35772   0.66044  -2.63801
C     0.00260  -2.20030  -0.12577
C     1.25633  -2.19549   0.19191
H     3.32368   1.55453   0.94350
H     3.71385   0.04313   0.03112
H     3.27625  -0.06187   1.75287
H    -0.34015  -2.09551  -1.16832
H    -0.79731  -2.20028   0.63268
H     1.61352  -2.08760   1.25360
H     2.07191  -1.98182  -0.55175
17

C     3.12077   0.50756   0.82862
C     1.73082   0.50553   0.47398
N     0.59365   0.68668   0.19297
C    -0.71252   0.68385  -0.14261
C    -1.66266   0.51468   0.87913
N    -2.47470   0.41443   1.71703
C    -1.04997   0.65050  -1.50665
N    -1.35754   0.66188  -2.63663
C     0.00018  -2.18460  -0.12548
C     1.26019  -2.16787   0.19461
H     3.31786   1.55429   0.94205
H     3.71418   0.04380   0.03140
H     3.27663  -0.06123   1.75282
H    -0.33981  -2.09558  -1.16826
H    -0.79702  -2.20027   0.63274
H     1.61376  -2.08755   1.25344
H     2.07207  -1.98182  -0.55137
17

C     3.11467   0.50411   0.82683
C     1.72463   0.47618   0.47062
N     0.59705   0.69579   0.19435
C    -0.70711   0.66641  -0.14223
C    -1.66153   0.51149   0.87857
N    -2.47390   0.41593   1.71605
C    -1.04920   0.64728  -1.50596
N    -1.35736   0.66333  -2.63525
C    -0.00224  -2.16890  -0.12520
C     1.26405  -2.14024   0.19732
H     3.31204   1.55405   0.94060
H     3.71450   0.04447   0.03168
H     3.27701  -0.06060   1.75277
H    -0.33947  -2.09565  -1.16820
H    -0.79674  -2.20026   0.63281
H     1.61400  -2.08751   1.25328
H     2.07224  -1.98181  -0.55099
17

C     3.10857   0.50066   0.82504
C     1.71843   0.44683   0.46725
N     0.60045   0.70491   0.19573
C    -0.70171   0.64897  -0.14185
C    -1.66040   0.50829   0.87800
N    -2.47310   0.41743   1.71507
C    -1.04843   0.64406  -1.50528
N    -1.35718   0.66477  -2.63387
C    -0.00466  -2.15319  -0.12491
C     1.26792  -2.11262   0.20002
H     3.30623   1.55381   0.93915
H     3.71482   0.04515   0.03196
H     3.27740  -0.05996   1.75271
H    -0.33913  -2.09573  -1.16814
H    -0.79646  -2.20025   0.63287
H     1.61424  -2.08746   1.25312
H     2.07241  -1.98181  -0.55062
17

C     3.10247   0.49721   0.82325
C     1.71223   0.41748   0.46389
N     0.60385   0.71402   0.19711
C    -0.69630   0.63154  -0.14148
C    -1.65927   0.50510   0.87743
N    -2.47230   0.41892   1.71409
C    -1.04767   0.64084  -1.50459
N    -1.35699   0.66621  -2.63249
C    -0.00708  -2.13749  -0.12463
C     1.27178  -2.08499   0.20273
H     3.30041   1.55357   0.93769
H     3.71515   0.04582   0.03225
H     3.27778  -0.05933   1.75266
H    -0.33879  -2.09580  -1.16808
H    -0.79617  -2.20025   0.63293
H     1.61449  -2.08741   1.25296
H     2.07257  -1.98181  -0.55024
17

C     3.09637   0.49376   0.82145
C     1.70603   0.38813   0.46053
N     0.60725   0.72314   0.19849
C    -0.69090   0.61410  -0.14110
C    -1.65813   0.50191   0.87687
N    -2.47150   0.42042   1.71311
C    -1.04690   0.63762  -1.50390
N    -1.35681   0.66765  -2.63111
C    -0.00950  -2.12179  -0.12434
C     1.27565  -2.05737   0.20543
H     3.29459   1.55333   0.93624
H     3.71547   0.04649   0.03253
H     3.27816  -0.05869   1.75260
H    -0.33845  -2.09587  -1.16802
H    -0.79589  -2.20024   0.63300
H     1.61473  -2.08736   1.25280
H     2.07274  -1.98181  -0.54986
17

C     3.09027   0.49031   0.81966
C     1.69984   0.35879   0.45716
N     0.61065   0.73225   0.19986
C    -0.68549   0.59666  -0.14072
C    -1.65700   0.49871   0.87630
N    -2.47070   0.42192   1.71213
C    -1.04613   0.63440  -1.50322
N    -1.35663   0.66909  -2.62972
C    -0.01192  -2.10608  -0.12406
C     1.27951  -2.02974   0.20813
H     3.28877   1.55308   0.93479
H     3.71580   0.04716   0.03281
H     3.27855  -0.05806   1.75255
H    -0.33811  -2.09594  -1.16796
H    -0.79560  -2.20023   0.63306
H     1.61497  -2.08731   1.25264
H     2.07291  -1.98180  -0.54949
17

C     3.08417   0.48686   0.81787
C     1.69364   0.32944   0.45380
N     0.61405   0.74136   0.20124
C    -0.68008   0.57923  -0.14034
C    -1.65587   0.49552   0.87573
N    -2.46990   0.42341   1.71115
C    -1.04536   0.63118  -1.50253
N    -1.35645   0.67054  -2.62834
C    -0.01434  -2.09038  -0.12377
C     1.28337  -2.00212   0.21084
H     3.28296   1.55284   0.93333
H     3.71612   0.04784   0.03309
H     3.27893  -0.05742   1.75249
H    -0.33777  -2.09602  -1.16790
H    -0.79532  -2.20022   0.63313
H     1.61521  -2.08727   1.25248
H     2.07307  -1.98180  -0.54911
17

C     3.07806   0.48341   0.81608
C     1.68744   0.30009   0.45044
N     0.61745   0.75048   0.20262
C    -0.67468   0.56179  -0.13996
C    -1.65474   0.49233   0.87517
N    -2.46910   0.42491   1.71017
C    -1.04460   0.62796  -1.50184
N    -1.35627   0.67198  -2.62696
C    -0.01676  -2.07468  -0.12349
C     1.28724  -1.97449   0.21354
H     3.27714   1.55260   0.93188
H     3.71644   0.04851   0.03337
H     3.27932  -0.05679   1.75244
H    -0.33743  -2.09609  -1.16784
H    -0.79504  -2.20021   0.63319
H     1.61545  -2.08722   1.25232
H     2.07324  -1.98180  -0.54873
17

C     3.07196   0.47996   0.81429
C     1.68124   0.27074   0.44707
N     0.62085   0.75959   0.20400
C    -0.66927   0.54435  -0.13958
C    -1.65361   0.48913   0.87460
N    -2.46830   0.42641   1.70919
C    -1.04383   0.62474  -1.50116
N    -1.35609   0.67342  -2.62558
C    -0.01918  -2.05898  -0.12320
C     1.29110  -1.94687   0.21625
H     3.27132   1.55236   0.93043
H     3.71677   0.04918   0.03365
H     3.27970  -0.05615   1.75238
H    -0.33709  -2.09616  -1.16778
H    -0.79475  -2.20020   0.63326
H     1.61569  -2.08717   1.25216
H     2.07341  -1.98180  -0.54836
17

C     3.06586   0.47650   0.81250
C     1.67505   0.24139   0.44371
N     0.62425   0.76871   0.20538
C    -0.66387   0.52691  -0.13921
C    -1.65248   0.48594   0.87404
N    -2.46750   0.42791   1.70821
C    -1.04306   0.62152  -1.50047
N    -1.35591   0.67486  -2.62420
C    -0.02160  -2.04327  -0.12292
C     1.29497  -1.91924   0.21895
H     3.26551   1.55212   0.92898
H     3.71709   0.04985   0.03394
H     3.28008  -0.05551   1.75233
H    -0.33675  -2.09623  -1.16772
H    -0.79447  -2.20019   0.63332
H     1.61594  -2.08712   1.25200
H     2.07357  -1.98179  -0.54798
17

C     3.05976   0.47305   0.81071
C     1.66885   0.21204   0.44035
N     0.62765   0.77782   0.20676
C    -0.65846   0.50948  -0.13883
C    -1.65135   0.48275   0.87347
N    -2.46670   0.42940   1.70723
C    -1.04229   0.61830  -1.49978
N    -1.35572   0.67630  -2.62282
C    -0.02402  -2.02757  -0.12263
C     1.29883  -1.89162   0.22166
H     3.25969   1.55188   0.92752
H     3.71742   0.05053   0.03422
H     3.28047  -0.05488   1.75228
H    -0.33641  -2.09631  -1.16767
H    -0.79418  -2.20018   0.63338
H     1.61618  -2.08707   1.25184
H     2.07374  -1.98179  -0.54760
17

C     3.05366   0.46960   0.80892
C     1.66265   0.18269   0.43698
N     0.63105   0.78693   0.20814
C    -0.65305   0.49204  -0.13845
C    -1.65022   0.47955   0.87290
N    -2.46590   0.43090   1.70625
C    -1.04153   0.61508  -1.49910
N    -1.35554   0.67775  -2.62144
C    -0.02644  -2.01187  -0.12234
C     1.30269  -1.86399   0.22436
H     3.25387   1.55164   0.92607
H     3.71774   0.05120   0.03450
H     3.28085  -0.05424   1.75222
H    -0.33607  -2.09638  -1.16761
H    -0.79390  -2.20017   0.63345
H     1.61642  -2.08703   1.25168
H     2.07391  -1.98179  -0.54723
17

C     3.04756   0.46615   0.80712
C     1.65645   0.15335   0.43362
N     0.63445   0.79605   0.20951
C    -0.64765   0.47460  -0.13807
C    -1.64909   0.47636   0.87234
N    -2.46510   0.43240   1.70527
C    -1.04076   0.61186  -1.49841
N    -1.35536   0.67919  -2.62006
C    -0.02886  -1.99617  -0.12206
C     1.30656  -1.83636   0.22707
H     3.24806   1.55140   0.92462
H     3.71807   0.05187   0.03478
H     3.28123  -0.05361   1.75217
H    -0.33573  -2.09645  -1.16755
H    -0.79362  -2.20016   0.63351
H     1.61666  -2.08698   1.25152
H     2.07407  -1.98179  -0.54685
17

C     3.04146   0.46270   0.80533
C     1.65026   0.12400   0.43026
N     0.63785   0.80516   0.21089
C    -0.64224   0.45717  -0.13769
C    -1.64796   0.47317   0.87177
N    -2.46430   0.43389   1.70429
C    -1.03999   0.60864  -1.49772
N    -1.35518   0.68063  -2.61868
C    -0.03128  -1.98046  -0.12177
C     1.31042  -1.80874   0.22977
H     3.24224   1.55115   0.92316
H     3.71839   0.05255   0.03506
H     3.28162  -0.05297   1.75211
H    -0.33539  -2.09652  -1.16749
H    -0.79333  -2.20015   0.63358
H     1.61690  -2.08693   1.25136
H     2.07424  -1.98178  -0.54647
17

C     3.03536   0.45925   0.80354
C     1.64406   0.09465   0.42689
N     0.64125   0.81428   0.21227
C    -0.63683   0.43973  -0.13731
C    -1.64683   0.46998   0.87120
N    -2.46349   0.43539   1.70331
C    -1.03922   0.60542  -1.49704
N    -1.35500   0.68207  -2.61730
C    -0.03370  -1.96476  -0.12149
C     1.31429  -1.78111   0.23248
H     3.23642   1.55091   0.92171
H     3.71871   0.05322   0.03534
H     3.28200  -0.05234   1.75206
H    -0.33504  -2.09660  -1.16743
H    -0.79305  -2.20014   0.63364
H     1.61714  -2.08688   1.25120
H     2.07441  -1.98178  -0.54610
17

C     3.02926   0.45580   0.80175
C     1.63786   0.06530   0.42353
N     0.64465   0.82339   0.21365
C    -0.63143   0.42229  -0.13694
C    -1.64570   0.46678   0.87064
N    -2.46269   0.43689   1.70233
C    -1.03846   0.60220  -1.49635
N    -1.35482   0.68351  -2.61591
C    -0.03612  -1.94906  -0.12120
C     1.31815  -1.75349   0.23518
H     3.23060   1.55067   0.92026
H     3.71904   0.05389   0.03563
H     3.28238  -0.05170   1.75200
H    -0.33470  -2.09667  -1.16737
H    -0.79276  -2.20013   0.63371
H     1.61739  -2.08683   1.25104
H     2.07457  -1.98178  -0.54572
17

C     3.02316   0.45235   0.79996
C     1.63166   0.03595   0.42017
N     0.64805   0.83250   0.21503
C    -0.62602   0.40485  -0.13656
C    -1.64457   0.46359   0.87007
N    -2.46189   0.43839   1.70135
C    -1.03769   0.59898  -1.49566
N    -1.35464   0.68496  -2.61453
C    -0.03854  -1.93335  -0.12092
C     1.32201  -1.72586   0.23789
H     3.22479   1.55043   0.91881
H     3.71936   0.05456   0.03591
H     3.28277  -0.05107   1.75195
H    -0.33436  -2.09674  -1.16731
H    -0.79248  -2.20012   0.63377
H     1.61763  -2.08678   1.25088
H     2.07474  -1.98178  -0.54534
17

C     3.01706   0.44890   0.79817
C     1.62546   0.00660   0.41681
N     0.65145   0.84162   0.21641
C    -0.62062   0.38742  -0.13618
C    -1.64344   0.46040   0.86951
N    -2.46109   0.43988   1.70037
C    -1.03692   0.59576  -1.49498
N    -1.35445   0.68640  -2.61315
C    -0.04096  -1.91765  -0.12063
C     1.32588  -1.69824   0.24059
H     3.21897   1.55019   0.91735
H     3.71969   0.05524   0.03619
H     3.28315  -0.05043   1.75190
H    -0.33402  -2.09681  -1.16725
H    -0.79220  -2.20012   0.63384
H     1.61787  -2.08674   1.25072
H     2.07491  -1.98177  -0.54497
17

C     3.01096   0.44545   0.79638
C     1.61927  -0.02274   0.41344
N     0.65485   0.85073   0.21778
C    -0.61521   0.36998  -0.13580
C    -1.64231   0.45720   0.86894
N    -2.46029   0.44138   1.69939
C    -1.03615   0.59254  -1.49429
N    -1.35427   0.68784  -2.61177
C    -0.04338  -1.90195  -0.12035
C     1.32974  -1.67061   0.24330
H     3.21315   1.54995   0.91590
H     3.72001   0.05591   0.03647
H     3.28354  -0.04980   1.75184
H    -0.33368  -2.09688  -1.16719
H    -0.79191  -2.20011   0.63390
H     1.61811  -2.08669   1.25056
H     2.07507  -1.98177  -0.54459
