17

C -3.668388528 -0.548769966 -0.920217632
C -1.799933029 1.200860916 0.350810383
H -2.749229086 2.807404985 1.215254355
C -0.176502537 -0.231366993 2.426808947
H -0.776612827 0.240512020 4.338652558
H -0.373448659 -2.265920707 2.158777393
C 2.583550523 0.573275594 1.834200415
C 4.482445542 -1.555653216 1.521189733
H 3.813383397 -2.931647524 0.139036486
H 4.767108330 -2.519626682 3.322753935
H 6.306916305 -0.838693657 0.883589108
H 3.275094834 1.970035913 3.186697264
C 1.622658577 1.779400153 -0.461461255
C -0.067421479 2.589987119 -1.903468591
H -2.679732386 -2.042745961 -1.943233984
H -4.875232638 -1.435280685 0.509167353
H -4.845840972 0.479324874 -2.257901220

