15

C -3.871144992 1.024596201 -0.958601050
O -3.856510934 -1.538845501 0.031595862
C -1.516604293 -1.751644309 1.091835208
C 0.364756297 -0.481257724 -0.678659214
O 0.298186669 -0.602533317 -3.133938132
O 2.525916049 -0.002684016 0.364055114
C 4.559180536 0.908481299 -1.193716182
H -5.470573279 1.169790946 -2.262388167
H -1.537529646 0.056147297 -3.239035081
H -4.182679704 2.366091442 0.592074420
H -1.329405208 -0.794163338 2.929931426
H -0.968944220 -3.742814126 1.338706969
H 5.198763955 -0.579417280 -2.459510110
H 3.922623740 2.532498211 -2.283651686
H 6.044382872 1.438088025 0.118426434

