28

C     3.19211  -1.53208   2.18108
N     2.25906  -0.87612   1.28070
C     1.51384  -1.60469   0.44081
O     1.53010  -2.84631   0.38242
C     0.67161  -0.86558  -0.52556
C     1.05901   0.19301  -1.40281
O     2.10728   0.76647  -1.63362
O    -0.09923   0.42577  -2.15262
N    -1.10207  -0.43039  -1.79545
C    -1.61843   1.20401   0.04210
C    -2.94885   0.54603   0.31981
O    -3.90103   0.78700  -0.47559
O    -3.04453  -0.12358   1.39527
C    -0.53174   1.04020   0.74812
C     0.62701   2.00265   0.72898
O     0.54994   2.98403  -0.05105
O     1.58324   1.79745   1.54909
N    -0.56318  -1.21513  -0.90109
C    -1.41153  -2.25833  -0.31970
H     3.89856  -2.17163   1.62093
H     2.67685  -2.17472   2.91496
H     3.76979  -0.77279   2.72663
H     2.07383   0.14508   1.40989
H    -1.60717   1.89045  -0.81667
H    -0.50293   0.27672   1.56095
H    -1.63572  -1.98080   0.72573
H    -0.89394  -3.22009  -0.34996
H    -2.34337  -2.30211  -0.89186
28

C     3.19291  -1.53250   2.18133
N     2.26020  -0.87559   1.28198
C     1.51273  -1.60182   0.44248
O     1.52930  -2.84282   0.38033
C     0.66413  -0.85468  -0.51379
C     1.05747   0.19466  -1.40328
O     2.10691   0.76415  -1.63403
O    -0.09815   0.42892  -2.15368
N    -1.10990  -0.41244  -1.77652
C    -1.61258   1.18357   0.02116
C    -2.94794   0.54376   0.31729
O    -3.90065   0.78807  -0.47538
O    -3.04228  -0.12011   1.39513
C    -0.52033   1.02553   0.73978
C     0.62738   2.00071   0.72878
O     0.54717   2.98240  -0.05004
O     1.58284   1.79821   1.55000
N    -0.56354  -1.21916  -0.90414
C    -1.41200  -2.25824  -0.31863
H     3.89873  -2.17173   1.62091
H     2.67700  -2.17490   2.91494
H     3.77014  -0.77309   2.72684
H     2.07421   0.14511   1.41067
H    -1.60675   1.88925  -0.81635
H    -0.50397   0.27767   1.56161
H    -1.63665  -1.98103   0.72603
H    -0.89468  -3.22045  -0.34906
H    -2.34353  -2.30278  -0.89158
28

C     3.19370  -1.53291   2.18159
N     2.26134  -0.87506   1.28325
C     1.51162  -1.59896   0.44415
O     1.52850  -2.83934   0.37824
C     0.65665  -0.84379  -0.50202
C     1.05593   0.19631  -1.40375
O     2.10654   0.76183  -1.63444
O    -0.09706   0.43207  -2.15475
N    -1.11773  -0.39449  -1.75759
C    -1.60672   1.16313   0.00023
C    -2.94703   0.54149   0.31477
O    -3.90026   0.78914  -0.47516
O    -3.04002  -0.11664   1.39498
C    -0.50892   1.01087   0.73143
C     0.62775   1.99877   0.72857
O     0.54440   2.98078  -0.04903
O     1.58243   1.79898   1.55091
N    -0.56390  -1.22318  -0.90719
C    -1.41248  -2.25814  -0.31755
H     3.89889  -2.17184   1.62089
H     2.67716  -2.17508   2.91493
H     3.77048  -0.77339   2.72705
H     2.07458   0.14514   1.41146
H    -1.60633   1.88805  -0.81603
H    -0.50501   0.27862   1.56226
H    -1.63758  -1.98127   0.72632
H    -0.89541  -3.22081  -0.34815
H    -2.34369  -2.30346  -0.89129
28

C     3.19449  -1.53333   2.18184
N     2.26248  -0.87453   1.28453
C     1.51051  -1.59610   0.44582
O     1.52769  -2.83585   0.37615
C     0.64916  -0.83289  -0.49024
C     1.05440   0.19796  -1.40422
O     2.10617   0.75951  -1.63485
O    -0.09597   0.43522  -2.15582
N    -1.12556  -0.37655  -1.73866
C    -1.60087   1.14268  -0.02071
C    -2.94613   0.53922   0.31225
O    -3.89988   0.79021  -0.47494
O    -3.03777  -0.11318   1.39484
C    -0.49751   0.99620   0.72309
C     0.62812   1.99683   0.72837
O     0.54164   2.97915  -0.04802
O     1.58202   1.79974   1.55182
N    -0.56427  -1.22721  -0.91025
C    -1.41295  -2.25804  -0.31647
H     3.89906  -2.17195   1.62087
H     2.67731  -2.17526   2.91491
H     3.77082  -0.77369   2.72726
H     2.07496   0.14517   1.41225
H    -1.60591   1.88685  -0.81571
H    -0.50605   0.27957   1.56292
H    -1.63851  -1.98150   0.72662
H    -0.89614  -3.22116  -0.34725
H    -2.34385  -2.30413  -0.89101
28

C     3.19529  -1.53374   2.18210
N     2.26363  -0.87401   1.28581
C     1.50940  -1.59323   0.44748
O     1.52689  -2.83237   0.37405
C     0.64168  -0.82199  -0.47847
C     1.05286   0.19961  -1.40469
O     2.10580   0.75719  -1.63526
O    -0.09488   0.43837  -2.15689
N    -1.13339  -0.35860  -1.71973
C    -1.59502   1.12224  -0.04164
C    -2.94522   0.53695   0.30974
O    -3.89949   0.79128  -0.47473
O    -3.03551  -0.10971   1.39469
C    -0.48610   0.98154   0.71475
C     0.62850   1.99489   0.72817
O     0.53887   2.97753  -0.04701
O     1.58161   1.80050   1.55273
N    -0.56463  -1.23123  -0.91330
C    -1.41342  -2.25794  -0.31539
H     3.89922  -2.17205   1.62086
H     2.67747  -2.17544   2.91489
H     3.77117  -0.77399   2.72747
H     2.07534   0.14520   1.41303
H    -1.60549   1.88565  -0.81539
H    -0.50708   0.28052   1.56358
H    -1.63944  -1.98173   0.72692
H    -0.89688  -3.22152  -0.34634
H    -2.34401  -2.30480  -0.89073
28

C     3.19608  -1.53416   2.18235
N     2.26477  -0.87348   1.28708
C     1.50829  -1.59037   0.44915
O     1.52609  -2.82888   0.37196
C     0.63420  -0.81109  -0.46670
C     1.05132   0.20126  -1.40516
O     2.10543   0.75487  -1.63567
O    -0.09379   0.44152  -2.15796
N    -1.14121  -0.34065  -1.70079
C    -1.58917   1.10180  -0.06258
C    -2.94431   0.53467   0.30722
O    -3.89910   0.79235  -0.47451
O    -3.03326  -0.10624   1.39455
C    -0.47469   0.96688   0.70640
C     0.62887   1.99295   0.72797
O     0.53610   2.97590  -0.04599
O     1.58120   1.80126   1.55364
N    -0.56499  -1.23526  -0.91635
C    -1.41390  -2.25785  -0.31432
H     3.89939  -2.17216   1.62084
H     2.67763  -2.17562   2.91488
H     3.77151  -0.77430   2.72768
H     2.07571   0.14523   1.41382
H    -1.60507   1.88445  -0.81507
H    -0.50812   0.28147   1.56424
H    -1.64038  -1.98196   0.72721
H    -0.89761  -3.22188  -0.34543
H    -2.34417  -2.30547  -0.89044
28

C     3.19687  -1.53458   2.18261
N     2.26591  -0.87295   1.28836
C     1.50718  -1.58750   0.45082
O     1.52529  -2.82540   0.36987
C     0.62671  -0.80020  -0.45493
C     1.04978   0.20291  -1.40563
O     2.10506   0.75255  -1.63608
O    -0.09270   0.44467  -2.15903
N    -1.14904  -0.32271  -1.68186
C    -1.58331   1.08136  -0.08351
C    -2.94340   0.53240   0.30470
O    -3.89872   0.79341  -0.47430
O    -3.03101  -0.10278   1.39441
C    -0.46329   0.95221   0.69806
C     0.62924   1.99101   0.72777
O     0.53333   2.97428  -0.04498
O     1.58079   1.80202   1.55455
N    -0.56535  -1.23928  -0.91941
C    -1.41437  -2.25775  -0.31324
H     3.89956  -2.17227   1.62082
H     2.67778  -2.17580   2.91486
H     3.77185  -0.77460   2.72789
H     2.07609   0.14526   1.41460
H    -1.60465   1.88325  -0.81475
H    -0.50916   0.28242   1.56490
H    -1.64131  -1.98219   0.72751
H    -0.89834  -3.22224  -0.34453
H    -2.34433  -2.30615  -0.89016
28

C     3.19767  -1.53499   2.18286
N     2.26705  -0.87242   1.28964
C     1.50607  -1.58464   0.45249
O     1.52448  -2.82192   0.36778
C     0.61923  -0.78930  -0.44316
C     1.04824   0.20456  -1.40610
O     2.10469   0.75024  -1.63649
O    -0.09161   0.44782  -2.16010
N    -1.15687  -0.30476  -1.66293
C    -1.57746   1.06092  -0.10445
C    -2.94249   0.53013   0.30218
O    -3.89833   0.79448  -0.47408
O    -3.02875  -0.09931   1.39426
C    -0.45188   0.93755   0.68972
C     0.62961   1.98907   0.72756
O     0.53057   2.97265  -0.04397
O     1.58038   1.80278   1.55546
N    -0.56571  -1.24331  -0.92246
C    -1.41484  -2.25765  -0.31216
H     3.89972  -2.17237   1.62080
H     2.67794  -2.17598   2.91484
H     3.77219  -0.77490   2.72810
H     2.07647   0.14529   1.41539
H    -1.60423   1.88205  -0.81443
H    -0.51020   0.28337   1.56556
H    -1.64224  -1.98242   0.72781
H    -0.89908  -3.22260  -0.34362
H    -2.34449  -2.30682  -0.88987
28

C     3.19846  -1.53541   2.18312
N     2.26820  -0.87189   1.29091
C     1.50496  -1.58177   0.45416
O     1.52368  -2.81843   0.36569
C     0.61174  -0.77840  -0.43138
C     1.04670   0.20621  -1.40657
O     2.10432   0.74792  -1.63690
O    -0.09052   0.45097  -2.16117
N    -1.16470  -0.28682  -1.64400
C    -1.57161   1.04047  -0.12538
C    -2.94158   0.52786   0.29966
O    -3.89794   0.79555  -0.47387
O    -3.02650  -0.09584   1.39412
C    -0.44047   0.92288   0.68137
C     0.62998   1.98713   0.72736
O     0.52780   2.97103  -0.04296
O     1.57998   1.80354   1.55637
N    -0.56607  -1.24733  -0.92551
C    -1.41531  -2.25755  -0.31108
H     3.89989  -2.17248   1.62079
H     2.67809  -2.17616   2.91482
H     3.77254  -0.77520   2.72831
H     2.07684   0.14532   1.41617
H    -1.60381   1.88085  -0.81410
H    -0.51123   0.28432   1.56622
H    -1.64317  -1.98266   0.72810
H    -0.89981  -3.22296  -0.34272
H    -2.34465  -2.30749  -0.88959
28

C     3.19925  -1.53582   2.18337
N     2.26934  -0.87136   1.29219
C     1.50385  -1.57891   0.45583
O     1.52288  -2.81495   0.36360
C     0.60426  -0.76750  -0.41961
C     1.04517   0.20786  -1.40704
O     2.10395   0.74560  -1.63731
O    -0.08943   0.45412  -2.16224
N    -1.17253  -0.26887  -1.62507
C    -1.56575   1.02003  -0.14632
C    -2.94067   0.52559   0.29714
O    -3.89756   0.79662  -0.47365
O    -3.02424  -0.09238   1.39398
C    -0.42906   0.90822   0.67303
C     0.63035   1.98519   0.72716
O     0.52503   2.96940  -0.04195
O     1.57957   1.80430   1.55728
N    -0.56643  -1.25136  -0.92857
C    -1.41579  -2.25746  -0.31000
H     3.90005  -2.17259   1.62077
H     2.67825  -2.17634   2.91481
H     3.77288  -0.77550   2.72852
H     2.07722   0.14535   1.41696
H    -1.60339   1.87965  -0.81378
H    -0.51227   0.28527   1.56687
H    -1.64410  -1.98289   0.72840
H    -0.90055  -3.22332  -0.34181
H    -2.34482  -2.30816  -0.88931
28

C     3.20005  -1.53624   2.18363
N     2.27048  -0.87083   1.29346
C     1.50274  -1.57604   0.45749
O     1.52208  -2.81146   0.36151
C     0.59678  -0.75660  -0.40784
C     1.04363   0.20951  -1.40751
O     2.10358   0.74328  -1.63772
O    -0.08834   0.45726  -2.16331
N    -1.18036  -0.25092  -1.60614
C    -1.55990   0.99959  -0.16725
C    -2.93976   0.52332   0.29462
O    -3.89717   0.79769  -0.47343
O    -3.02199  -0.08891   1.39383
C    -0.41765   0.89355   0.66469
C     0.63073   1.98326   0.72696
O     0.52226   2.96778  -0.04094
O     1.57916   1.80506   1.55819
N    -0.56680  -1.25539  -0.93162
C    -1.41626  -2.25736  -0.30893
H     3.90022  -2.17269   1.62075
H     2.67841  -2.17652   2.91479
H     3.77322  -0.77580   2.72873
H     2.07760   0.14538   1.41774
H    -1.60297   1.87845  -0.81346
H    -0.51331   0.28622   1.56753
H    -1.64503  -1.98312   0.72870
H    -0.90128  -3.22368  -0.34090
H    -2.34498  -2.30883  -0.88902
28

C     3.20084  -1.53665   2.18388
N     2.27162  -0.87030   1.29474
C     1.50163  -1.57318   0.45916
O     1.52127  -2.80798   0.35942
C     0.58929  -0.74571  -0.39607
C     1.04209   0.21116  -1.40798
O     2.10321   0.74096  -1.63813
O    -0.08725   0.46041  -2.16438
N    -1.18818  -0.23298  -1.58720
C    -1.55405   0.97915  -0.18819
C    -2.93885   0.52105   0.29210
O    -3.89679   0.79876  -0.47322
O    -3.01973  -0.08544   1.39369
C    -0.40624   0.87889   0.65634
C     0.63110   1.98132   0.72676
O     0.51950   2.96615  -0.03993
O     1.57875   1.80583   1.55909
N    -0.56716  -1.25941  -0.93467
C    -1.41673  -2.25726  -0.30785
H     3.90039  -2.17280   1.62074
H     2.67856  -2.17669   2.91477
H     3.77356  -0.77610   2.72894
H     2.07797   0.14541   1.41853
H    -1.60255   1.87725  -0.81314
H    -0.51435   0.28717   1.56819
H    -1.64596  -1.98335   0.72899
H    -0.90201  -3.22403  -0.34000
H    -2.34514  -2.30951  -0.88874
28

C     3.20163  -1.53707   2.18414
N     2.27276  -0.86977   1.29602
C     1.50052  -1.57031   0.46083
O     1.52047  -2.80449   0.35733
C     0.58181  -0.73481  -0.38429
C     1.04055   0.21281  -1.40845
O     2.10284   0.73864  -1.63854
O    -0.08616   0.46356  -2.16545
N    -1.19601  -0.21503  -1.56827
C    -1.54820   0.95871  -0.20912
C    -2.93794   0.51878   0.28958
O    -3.89640   0.79983  -0.47300
O    -3.01748  -0.08197   1.39354
C    -0.39483   0.86422   0.64800
C     0.63147   1.97938   0.72656
O     0.51673   2.96453  -0.03892
O     1.57834   1.80659   1.56000
N    -0.56752  -1.26344  -0.93773
C    -1.41721  -2.25716  -0.30677
H     3.90055  -2.17291   1.62072
H     2.67872  -2.17687   2.91475
H     3.77391  -0.77640   2.72915
H     2.07835   0.14544   1.41931
H    -1.60213   1.87605  -0.81282
H    -0.51538   0.28812   1.56885
H    -1.64690  -1.98358   0.72929
H    -0.90275  -3.22439  -0.33909
H    -2.34530  -2.31018  -0.88846
28

C     3.20243  -1.53749   2.18439
N     2.27391  -0.86924   1.29729
C     1.49941  -1.56745   0.46250
O     1.51967  -2.80101   0.35523
C     0.57433  -0.72391  -0.37252
C     1.03901   0.21446  -1.40892
O     2.10247   0.73632  -1.63895
O    -0.08507   0.46671  -2.16651
N    -1.20384  -0.19709  -1.54934
C    -1.54234   0.93826  -0.23006
C    -2.93703   0.51651   0.28706
O    -3.89601   0.80090  -0.47279
O    -3.01522  -0.07851   1.39340
C    -0.38343   0.84956   0.63965
C     0.63184   1.97744   0.72635
O     0.51396   2.96290  -0.03791
O     1.57793   1.80735   1.56091
N    -0.56788  -1.26746  -0.94078
C    -1.41768  -2.25706  -0.30569
H     3.90072  -2.17301   1.62070
H     2.67887  -2.17705   2.91474
H     3.77425  -0.77671   2.72936
H     2.07873   0.14547   1.42010
H    -1.60171   1.87485  -0.81250
H    -0.51642   0.28907   1.56951
H    -1.64783  -1.98382   0.72959
H    -0.90348  -3.22475  -0.33819
H    -2.34546  -2.31085  -0.88817
28

C     3.20322  -1.53790   2.18465
N     2.27505  -0.86871   1.29857
C     1.49830  -1.56458   0.46417
O     1.51887  -2.79752   0.35314
C     0.56684  -0.71301  -0.36075
C     1.03748   0.21611  -1.40939
O     2.10210   0.73400  -1.63936
O    -0.08398   0.46986  -2.16758
N    -1.21167  -0.17914  -1.53041
C    -1.53649   0.91782  -0.25099
C    -2.93612   0.51424   0.28454
O    -3.89563   0.80197  -0.47257
O    -3.01297  -0.07504   1.39326
C    -0.37202   0.83489   0.63131
C     0.63221   1.97550   0.72615
O     0.51119   2.96127  -0.03690
O     1.57752   1.80811   1.56182
N    -0.56824  -1.27149  -0.94383
C    -1.41815  -2.25697  -0.30462
H     3.90089  -2.17312   1.62068
H     2.67903  -2.17723   2.91472
H     3.77459  -0.77701   2.72957
H     2.07910   0.14550   1.42088
H    -1.60129   1.87365  -0.81218
H    -0.51746   0.29002   1.57017
H    -1.64876  -1.98405   0.72988
H    -0.90421  -3.22511  -0.33728
H    -2.34562  -2.31152  -0.88789
28

C     3.20401  -1.53832   2.18490
N     2.27619  -0.86818   1.29984
C     1.49719  -1.56172   0.46583
O     1.51806  -2.79404   0.35105
C     0.55936  -0.70212  -0.34898
C     1.03594   0.21776  -1.40986
O     2.10173   0.73168  -1.63977
O    -0.08289   0.47301  -2.16865
N    -1.21950  -0.16119  -1.51148
C    -1.53064   0.89738  -0.27192
C    -2.93522   0.51196   0.28203
O    -3.89524   0.80304  -0.47236
O    -3.01071  -0.07157   1.39311
C    -0.36061   0.82023   0.62297
C     0.63258   1.97356   0.72595
O     0.50843   2.95965  -0.03589
O     1.57711   1.80887   1.56273
N    -0.56860  -1.27551  -0.94689
C    -1.41862  -2.25687  -0.30354
H     3.90105  -2.17323   1.62067
H     2.67919  -2.17741   2.91470
H     3.77494  -0.77731   2.72978
H     2.07948   0.14553   1.42167
H    -1.60087   1.87245  -0.81185
H    -0.51850   0.29096   1.57083
H    -1.64969  -1.98428   0.73018
H    -0.90495  -3.22547  -0.33637
H    -2.34578  -2.31220  -0.88760
28

C     3.20481  -1.53873   2.18516
N     2.27733  -0.86766   1.30112
C     1.49608  -1.55885   0.46750
O     1.51726  -2.79055   0.34896
C     0.55188  -0.69122  -0.33721
C     1.03440   0.21941  -1.41033
O     2.10136   0.72936  -1.64018
O    -0.08181   0.47616  -2.16972
N    -1.22733  -0.14325  -1.49255
C    -1.52478   0.87694  -0.29286
C    -2.93431   0.50969   0.27951
O    -3.89485   0.80411  -0.47214
O    -3.00846  -0.06811   1.39297
C    -0.34920   0.80557   0.61462
C     0.63296   1.97162   0.72575
O     0.50566   2.95802  -0.03488
O     1.57671   1.80963   1.56364
N    -0.56896  -1.27954  -0.94994
C    -1.41910  -2.25677  -0.30246
H     3.90122  -2.17334   1.62065
H     2.67934  -2.17759   2.91469
H     3.77528  -0.77761   2.72999
H     2.07986   0.14556   1.42246
H    -1.60045   1.87125  -0.81153
H    -0.51954   0.29191   1.57148
H    -1.65062  -1.98451   0.73048
H    -0.90568  -3.22583  -0.33547
H    -2.34594  -2.31287  -0.88732
28

C     3.20560  -1.53915   2.18541
N     2.27848  -0.86713   1.30240
C     1.49497  -1.55599   0.46917
O     1.51646  -2.78707   0.34687
C     0.54439  -0.68032  -0.32543
C     1.03286   0.22106  -1.41080
O     2.10099   0.72704  -1.64059
O    -0.08072   0.47931  -2.17079
N    -1.23516  -0.12530  -1.47361
C    -1.51893   0.85649  -0.31379
C    -2.93340   0.50742   0.27699
O    -3.89447   0.80518  -0.47193
O    -3.00621  -0.06464   1.39283
C    -0.33779   0.79090   0.60628
C     0.63333   1.96968   0.72555
O     0.50289   2.95640  -0.03387
O     1.57630   1.81039   1.56455
N    -0.56932  -1.28356  -0.95299
C    -1.41957  -2.25667  -0.30138
H     3.90138  -2.17344   1.62063
H     2.67950  -2.17777   2.91467
H     3.77562  -0.77791   2.73020
H     2.08023   0.14559   1.42324
H    -1.60003   1.87005  -0.81121
H    -0.52057   0.29286   1.57214
H    -1.65155  -1.98474   0.73078
H    -0.90641  -3.22619  -0.33456
H    -2.34611  -2.31354  -0.88704
28

C     3.20639  -1.53956   2.18566
N     2.27962  -0.86660   1.30367
C     1.49386  -1.55312   0.47084
O     1.51566  -2.78358   0.34478
C     0.53691  -0.66942  -0.31366
C     1.03132   0.22271  -1.41127
O     2.10062   0.72472  -1.64100
O    -0.07963   0.48246  -2.17186
N    -1.24298  -0.10736  -1.45468
C    -1.51308   0.83605  -0.33473
C    -2.93249   0.50515   0.27447
O    -3.89408   0.80625  -0.47171
O    -3.00395  -0.06117   1.39268
C    -0.32638   0.77624   0.59794
C     0.63370   1.96774   0.72534
O     0.50012   2.95477  -0.03285
O     1.57589   1.81115   1.56546
N    -0.56969  -1.28759  -0.95605
C    -1.42004  -2.25658  -0.30031
H     3.90155  -2.17355   1.62062
H     2.67966  -2.17795   2.91465
H     3.77596  -0.77821   2.73041
H     2.08061   0.14562   1.42403
H    -1.59961   1.86885  -0.81089
H    -0.52161   0.29381   1.57280
H    -1.65249  -1.98498   0.73107
H    -0.90715  -3.22655  -0.33366
H    -2.34627  -2.31421  -0.88675
28

C     3.20719  -1.53998   2.18592
N     2.28076  -0.86607   1.30495
C     1.49275  -1.55026   0.47251
O     1.51485  -2.78010   0.34269
C     0.52942  -0.65852  -0.30189
C     1.02979   0.22436  -1.41174
O     2.10025   0.72240  -1.64141
O    -0.07854   0.48561  -2.17293
N    -1.25081  -0.08941  -1.43575
C    -1.50722   0.81561  -0.35566
C    -2.93158   0.50288   0.27195
O    -3.89369   0.80732  -0.47149
O    -3.00170  -0.05771   1.39254
C    -0.31498   0.76157   0.58959
C     0.63407   1.96580   0.72514
O     0.49735   2.95315  -0.03184
O     1.57548   1.81191   1.56637
N    -0.57005  -1.29161  -0.95910
C    -1.42052  -2.25648  -0.29923
H     3.90172  -2.17366   1.62060
H     2.67981  -2.17813   2.91463
H     3.77631  -0.77851   2.73062
H     2.08099   0.14566   1.42481
H    -1.59919   1.86765  -0.81057
H    -0.52265   0.29476   1.57346
H    -1.65342  -1.98521   0.73137
H    -0.90788  -3.22690  -0.33275
H    -2.34643  -2.31488  -0.88647
28

C     3.20798  -1.54040   2.18617
N     2.28190  -0.86554   1.30623
C     1.49164  -1.54740   0.47418
O     1.51405  -2.77662   0.34060
C     0.52194  -0.64763  -0.29012
C     1.02825   0.22601  -1.41221
O     2.09988   0.72008  -1.64182
O    -0.07745   0.48876  -2.17400
N    -1.25864  -0.07146  -1.41682
C    -1.50137   0.79517  -0.37660
C    -2.93067   0.50061   0.26943
O    -3.89331   0.80839  -0.47128
O    -2.99944  -0.05424   1.39239
C    -0.30357   0.74691   0.58125
C     0.63444   1.96386   0.72494
O     0.49459   2.95152  -0.03083
O     1.57507   1.81268   1.56728
N    -0.57041  -1.29564  -0.96215
C    -1.42099  -2.25638  -0.29815
H     3.90188  -2.17376   1.62058
H     2.67997  -2.17831   2.91462
H     3.77665  -0.77881   2.73083
H     2.08136   0.14569   1.42560
H    -1.59877   1.86645  -0.81025
H    -0.52369   0.29571   1.57412
H    -1.65435  -1.98544   0.73167
H    -0.90861  -3.22726  -0.33184
H    -2.34659  -2.31556  -0.88618
28

C     3.20719  -1.53998   2.18592
N     2.28076  -0.86607   1.30495
C     1.49275  -1.55026   0.47251
O     1.51485  -2.78010   0.34269
C     0.52942  -0.65852  -0.30189
C     1.02979   0.22436  -1.41174
O     2.10025   0.72240  -1.64141
O    -0.07854   0.48561  -2.17293
N    -1.25081  -0.08941  -1.43575
C    -1.50722   0.81561  -0.35566
C    -2.93158   0.50288   0.27195
O    -3.89369   0.80732  -0.47149
O    -3.00170  -0.05771   1.39254
C    -0.31498   0.76157   0.58959
C     0.63407   1.96580   0.72514
O     0.49735   2.95315  -0.03184
O     1.57548   1.81191   1.56637
N    -0.57005  -1.29161  -0.95910
C    -1.42052  -2.25648  -0.29923
H     3.90172  -2.17366   1.62060
H     2.67981  -2.17813   2.91463
H     3.77631  -0.77851   2.73062
H     2.08099   0.14566   1.42481
H    -1.59919   1.86765  -0.81057
H    -0.52265   0.29476   1.57346
H    -1.65342  -1.98521   0.73137
H    -0.90788  -3.22690  -0.33275
H    -2.34643  -2.31488  -0.88647
28

C     3.20639  -1.53956   2.18566
N     2.27962  -0.86660   1.30367
C     1.49386  -1.55312   0.47084
O     1.51566  -2.78358   0.34478
C     0.53691  -0.66942  -0.31366
C     1.03132   0.22271  -1.41127
O     2.10062   0.72472  -1.64100
O    -0.07963   0.48246  -2.17186
N    -1.24298  -0.10736  -1.45468
C    -1.51308   0.83605  -0.33473
C    -2.93249   0.50515   0.27447
O    -3.89408   0.80625  -0.47171
O    -3.00395  -0.06117   1.39268
C    -0.32638   0.77624   0.59794
C     0.63370   1.96774   0.72534
O     0.50012   2.95477  -0.03285
O     1.57589   1.81115   1.56546
N    -0.56969  -1.28759  -0.95605
C    -1.42004  -2.25658  -0.30031
H     3.90155  -2.17355   1.62062
H     2.67966  -2.17795   2.91465
H     3.77596  -0.77821   2.73041
H     2.08061   0.14562   1.42403
H    -1.59961   1.86885  -0.81089
H    -0.52161   0.29381   1.57280
H    -1.65249  -1.98498   0.73107
H    -0.90715  -3.22655  -0.33366
H    -2.34627  -2.31421  -0.88675
28

C     3.20560  -1.53915   2.18541
N     2.27848  -0.86713   1.30240
C     1.49497  -1.55599   0.46917
O     1.51646  -2.78707   0.34687
C     0.54439  -0.68032  -0.32543
C     1.03286   0.22106  -1.41080
O     2.10099   0.72704  -1.64059
O    -0.08072   0.47931  -2.17079
N    -1.23516  -0.12530  -1.47361
C    -1.51893   0.85649  -0.31379
C    -2.93340   0.50742   0.27699
O    -3.89447   0.80518  -0.47193
O    -3.00621  -0.06464   1.39283
C    -0.33779   0.79090   0.60628
C     0.63333   1.96968   0.72555
O     0.50289   2.95640  -0.03387
O     1.57630   1.81039   1.56455
N    -0.56932  -1.28356  -0.95299
C    -1.41957  -2.25667  -0.30138
H     3.90138  -2.17344   1.62063
H     2.67950  -2.17777   2.91467
H     3.77562  -0.77791   2.73020
H     2.08023   0.14559   1.42324
H    -1.60003   1.87005  -0.81121
H    -0.52057   0.29286   1.57214
H    -1.65155  -1.98474   0.73078
H    -0.90641  -3.22619  -0.33456
H    -2.34611  -2.31354  -0.88704
28

C     3.20481  -1.53873   2.18516
N     2.27733  -0.86766   1.30112
C     1.49608  -1.55885   0.46750
O     1.51726  -2.79055   0.34896
C     0.55188  -0.69122  -0.33721
C     1.03440   0.21941  -1.41033
O     2.10136   0.72936  -1.64018
O    -0.08181   0.47616  -2.16972
N    -1.22733  -0.14325  -1.49255
C    -1.52478   0.87694  -0.29286
C    -2.93431   0.50969   0.27951
O    -3.89485   0.80411  -0.47214
O    -3.00846  -0.06811   1.39297
C    -0.34920   0.80557   0.61462
C     0.63296   1.97162   0.72575
O     0.50566   2.95802  -0.03488
O     1.57671   1.80963   1.56364
N    -0.56896  -1.27954  -0.94994
C    -1.41910  -2.25677  -0.30246
H     3.90122  -2.17334   1.62065
H     2.67934  -2.17759   2.91469
H     3.77528  -0.77761   2.72999
H     2.07986   0.14556   1.42246
H    -1.60045   1.87125  -0.81153
H    -0.51954   0.29191   1.57148
H    -1.65062  -1.98451   0.73048
H    -0.90568  -3.22583  -0.33547
H    -2.34594  -2.31287  -0.88732
28

C     3.20401  -1.53832   2.18490
N     2.27619  -0.86818   1.29984
C     1.49719  -1.56172   0.46583
O     1.51806  -2.79404   0.35105
C     0.55936  -0.70212  -0.34898
C     1.03594   0.21776  -1.40986
O     2.10173   0.73168  -1.63977
O    -0.08289   0.47301  -2.16865
N    -1.21950  -0.16119  -1.51148
C    -1.53064   0.89738  -0.27192
C    -2.93522   0.51196   0.28203
O    -3.89524   0.80304  -0.47236
O    -3.01071  -0.07157   1.39311
C    -0.36061   0.82023   0.62297
C     0.63258   1.97356   0.72595
O     0.50843   2.95965  -0.03589
O     1.57711   1.80887   1.56273
N    -0.56860  -1.27551  -0.94689
C    -1.41862  -2.25687  -0.30354
H     3.90105  -2.17323   1.62067
H     2.67919  -2.17741   2.91470
H     3.77494  -0.77731   2.72978
H     2.07948   0.14553   1.42167
H    -1.60087   1.87245  -0.81185
H    -0.51850   0.29096   1.57083
H    -1.64969  -1.98428   0.73018
H    -0.90495  -3.22547  -0.33637
H    -2.34578  -2.31220  -0.88760
28

C     3.20322  -1.53790   2.18465
N     2.27505  -0.86871   1.29857
C     1.49830  -1.56458   0.46417
O     1.51887  -2.79752   0.35314
C     0.56684  -0.71301  -0.36075
C     1.03748   0.21611  -1.40939
O     2.10210   0.73400  -1.63936
O    -0.08398   0.46986  -2.16758
N    -1.21167  -0.17914  -1.53041
C    -1.53649   0.91782  -0.25099
C    -2.93612   0.51424   0.28454
O    -3.89563   0.80197  -0.47257
O    -3.01297  -0.07504   1.39326
C    -0.37202   0.83489   0.63131
C     0.63221   1.97550   0.72615
O     0.51119   2.96127  -0.03690
O     1.57752   1.80811   1.56182
N    -0.56824  -1.27149  -0.94383
C    -1.41815  -2.25697  -0.30462
H     3.90089  -2.17312   1.62068
H     2.67903  -2.17723   2.91472
H     3.77459  -0.77701   2.72957
H     2.07910   0.14550   1.42088
H    -1.60129   1.87365  -0.81218
H    -0.51746   0.29002   1.57017
H    -1.64876  -1.98405   0.72988
H    -0.90421  -3.22511  -0.33728
H    -2.34562  -2.31152  -0.88789
28

C     3.20243  -1.53749   2.18439
N     2.27391  -0.86924   1.29729
C     1.49941  -1.56745   0.46250
O     1.51967  -2.80101   0.35523
C     0.57433  -0.72391  -0.37252
C     1.03901   0.21446  -1.40892
O     2.10247   0.73632  -1.63895
O    -0.08507   0.46671  -2.16651
N    -1.20384  -0.19709  -1.54934
C    -1.54234   0.93826  -0.23006
C    -2.93703   0.51651   0.28706
O    -3.89601   0.80090  -0.47279
O    -3.01522  -0.07851   1.39340
C    -0.38343   0.84956   0.63965
C     0.63184   1.97744   0.72635
O     0.51396   2.96290  -0.03791
O     1.57793   1.80735   1.56091
N    -0.56788  -1.26746  -0.94078
C    -1.41768  -2.25706  -0.30569
H     3.90072  -2.17301   1.62070
H     2.67887  -2.17705   2.91474
H     3.77425  -0.77671   2.72936
H     2.07873   0.14547   1.42010
H    -1.60171   1.87485  -0.81250
H    -0.51642   0.28907   1.56951
H    -1.64783  -1.98382   0.72959
H    -0.90348  -3.22475  -0.33819
H    -2.34546  -2.31085  -0.88817
28

C     3.20163  -1.53707   2.18414
N     2.27276  -0.86977   1.29602
C     1.50052  -1.57031   0.46083
O     1.52047  -2.80449   0.35733
C     0.58181  -0.73481  -0.38429
C     1.04055   0.21281  -1.40845
O     2.10284   0.73864  -1.63854
O    -0.08616   0.46356  -2.16545
N    -1.19601  -0.21503  -1.56827
C    -1.54820   0.95871  -0.20912
C    -2.93794   0.51878   0.28958
O    -3.89640   0.79983  -0.47300
O    -3.01748  -0.08197   1.39354
C    -0.39483   0.86422   0.64800
C     0.63147   1.97938   0.72656
O     0.51673   2.96453  -0.03892
O     1.57834   1.80659   1.56000
N    -0.56752  -1.26344  -0.93773
C    -1.41721  -2.25716  -0.30677
H     3.90055  -2.17291   1.62072
H     2.67872  -2.17687   2.91475
H     3.77391  -0.77640   2.72915
H     2.07835   0.14544   1.41931
H    -1.60213   1.87605  -0.81282
H    -0.51538   0.28812   1.56885
H    -1.64690  -1.98358   0.72929
H    -0.90275  -3.22439  -0.33909
H    -2.34530  -2.31018  -0.88846
28

C     3.20084  -1.53665   2.18388
N     2.27162  -0.87030   1.29474
C     1.50163  -1.57318   0.45916
O     1.52127  -2.80798   0.35942
C     0.58929  -0.74571  -0.39607
C     1.04209   0.21116  -1.40798
O     2.10321   0.74096  -1.63813
O    -0.08725   0.46041  -2.16438
N    -1.18818  -0.23298  -1.58720
C    -1.55405   0.97915  -0.18819
C    -2.93885   0.52105   0.29210
O    -3.89679   0.79876  -0.47322
O    -3.01973  -0.08544   1.39369
C    -0.40624   0.87889   0.65634
C     0.63110   1.98132   0.72676
O     0.51950   2.96615  -0.03993
O     1.57875   1.80583   1.55909
N    -0.56716  -1.25941  -0.93467
C    -1.41673  -2.25726  -0.30785
H     3.90039  -2.17280   1.62074
H     2.67856  -2.17669   2.91477
H     3.77356  -0.77610   2.72894
H     2.07797   0.14541   1.41853
H    -1.60255   1.87725  -0.81314
H    -0.51435   0.28717   1.56819
H    -1.64596  -1.98335   0.72899
H    -0.90201  -3.22403  -0.34000
H    -2.34514  -2.30951  -0.88874
28

C     3.20005  -1.53624   2.18363
N     2.27048  -0.87083   1.29346
C     1.50274  -1.57604   0.45749
O     1.52208  -2.81146   0.36151
C     0.59678  -0.75660  -0.40784
C     1.04363   0.20951  -1.40751
O     2.10358   0.74328  -1.63772
O    -0.08834   0.45726  -2.16331
N    -1.18036  -0.25092  -1.60614
C    -1.55990   0.99959  -0.16725
C    -2.93976   0.52332   0.29462
O    -3.89717   0.79769  -0.47343
O    -3.02199  -0.08891   1.39383
C    -0.41765   0.89355   0.66469
C     0.63073   1.98326   0.72696
O     0.52226   2.96778  -0.04094
O     1.57916   1.80506   1.55819
N    -0.56680  -1.25539  -0.93162
C    -1.41626  -2.25736  -0.30893
H     3.90022  -2.17269   1.62075
H     2.67841  -2.17652   2.91479
H     3.77322  -0.77580   2.72873
H     2.07760   0.14538   1.41774
H    -1.60297   1.87845  -0.81346
H    -0.51331   0.28622   1.56753
H    -1.64503  -1.98312   0.72870
H    -0.90128  -3.22368  -0.34090
H    -2.34498  -2.30883  -0.88902
28

C     3.19925  -1.53582   2.18337
N     2.26934  -0.87136   1.29219
C     1.50385  -1.57891   0.45583
O     1.52288  -2.81495   0.36360
C     0.60426  -0.76750  -0.41961
C     1.04517   0.20786  -1.40704
O     2.10395   0.74560  -1.63731
O    -0.08943   0.45412  -2.16224
N    -1.17253  -0.26887  -1.62507
C    -1.56575   1.02003  -0.14632
C    -2.94067   0.52559   0.29714
O    -3.89756   0.79662  -0.47365
O    -3.02424  -0.09238   1.39398
C    -0.42906   0.90822   0.67303
C     0.63035   1.98519   0.72716
O     0.52503   2.96940  -0.04195
O     1.57957   1.80430   1.55728
N    -0.56643  -1.25136  -0.92857
C    -1.41579  -2.25746  -0.31000
H     3.90005  -2.17259   1.62077
H     2.67825  -2.17634   2.91481
H     3.77288  -0.77550   2.72852
H     2.07722   0.14535   1.41696
H    -1.60339   1.87965  -0.81378
H    -0.51227   0.28527   1.56687
H    -1.64410  -1.98289   0.72840
H    -0.90055  -3.22332  -0.34181
H    -2.34482  -2.30816  -0.88931
28

C     3.19846  -1.53541   2.18312
N     2.26820  -0.87189   1.29091
C     1.50496  -1.58177   0.45416
O     1.52368  -2.81843   0.36569
C     0.61174  -0.77840  -0.43138
C     1.04670   0.20621  -1.40657
O     2.10432   0.74792  -1.63690
O    -0.09052   0.45097  -2.16117
N    -1.16470  -0.28682  -1.64400
C    -1.57161   1.04047  -0.12538
C    -2.94158   0.52786   0.29966
O    -3.89794   0.79555  -0.47387
O    -3.02650  -0.09584   1.39412
C    -0.44047   0.92288   0.68137
C     0.62998   1.98713   0.72736
O     0.52780   2.97103  -0.04296
O     1.57998   1.80354   1.55637
N    -0.56607  -1.24733  -0.92551
C    -1.41531  -2.25755  -0.31108
H     3.89989  -2.17248   1.62079
H     2.67809  -2.17616   2.91482
H     3.77254  -0.77520   2.72831
H     2.07684   0.14532   1.41617
H    -1.60381   1.88085  -0.81410
H    -0.51123   0.28432   1.56622
H    -1.64317  -1.98266   0.72810
H    -0.89981  -3.22296  -0.34272
H    -2.34465  -2.30749  -0.88959
28

C     3.19767  -1.53499   2.18286
N     2.26705  -0.87242   1.28964
C     1.50607  -1.58464   0.45249
O     1.52448  -2.82192   0.36778
C     0.61923  -0.78930  -0.44316
C     1.04824   0.20456  -1.40610
O     2.10469   0.75024  -1.63649
O    -0.09161   0.44782  -2.16010
N    -1.15687  -0.30476  -1.66293
C    -1.57746   1.06092  -0.10445
C    -2.94249   0.53013   0.30218
O    -3.89833   0.79448  -0.47408
O    -3.02875  -0.09931   1.39426
C    -0.45188   0.93755   0.68972
C     0.62961   1.98907   0.72756
O     0.53057   2.97265  -0.04397
O     1.58038   1.80278   1.55546
N    -0.56571  -1.24331  -0.92246
C    -1.41484  -2.25765  -0.31216
H     3.89972  -2.17237   1.62080
H     2.67794  -2.17598   2.91484
H     3.77219  -0.77490   2.72810
H     2.07647   0.14529   1.41539
H    -1.60423   1.88205  -0.81443
H    -0.51020   0.28337   1.56556
H    -1.64224  -1.98242   0.72781
H    -0.89908  -3.22260  -0.34362
H    -2.34449  -2.30682  -0.88987
28

C     3.19687  -1.53458   2.18261
N     2.26591  -0.87295   1.28836
C     1.50718  -1.58750   0.45082
O     1.52529  -2.82540   0.36987
C     0.62671  -0.80020  -0.45493
C     1.04978   0.20291  -1.40563
O     2.10506   0.75255  -1.63608
O    -0.09270   0.44467  -2.15903
N    -1.14904  -0.32271  -1.68186
C    -1.58331   1.08136  -0.08351
C    -2.94340   0.53240   0.30470
O    -3.89872   0.79341  -0.47430
O    -3.03101  -0.10278   1.39441
C    -0.46329   0.95221   0.69806
C     0.62924   1.99101   0.72777
O     0.53333   2.97428  -0.04498
O     1.58079   1.80202   1.55455
N    -0.56535  -1.23928  -0.91941
C    -1.41437  -2.25775  -0.31324
H     3.89956  -2.17227   1.62082
H     2.67778  -2.17580   2.91486
H     3.77185  -0.77460   2.72789
H     2.07609   0.14526   1.41460
H    -1.60465   1.88325  -0.81475
H    -0.50916   0.28242   1.56490
H    -1.64131  -1.98219   0.72751
H    -0.89834  -3.22224  -0.34453
H    -2.34433  -2.30615  -0.89016
28

C     3.19608  -1.53416   2.18235
N     2.26477  -0.87348   1.28708
C     1.50829  -1.59037   0.44915
O     1.52609  -2.82888   0.37196
C     0.63420  -0.81109  -0.46670
C     1.05132   0.20126  -1.40516
O     2.10543   0.75487  -1.63567
O    -0.09379   0.44152  -2.15796
N    -1.14121  -0.34065  -1.70079
C    -1.58917   1.10180  -0.06258
C    -2.94431   0.53467   0.30722
O    -3.89910   0.79235  -0.47451
O    -3.03326  -0.10624   1.39455
C    -0.47469   0.96688   0.70640
C     0.62887   1.99295   0.72797
O     0.53610   2.97590  -0.04599
O     1.58120   1.80126   1.55364
N    -0.56499  -1.23526  -0.91635
C    -1.41390  -2.25785  -0.31432
H     3.89939  -2.17216   1.62084
H     2.67763  -2.17562   2.91488
H     3.77151  -0.77430   2.72768
H     2.07571   0.14523   1.41382
H    -1.60507   1.88445  -0.81507
H    -0.50812   0.28147   1.56424
H    -1.64038  -1.98196   0.72721
H    -0.89761  -3.22188  -0.34543
H    -2.34417  -2.30547  -0.89044
28

C     3.19529  -1.53374   2.18210
N     2.26363  -0.87401   1.28581
C     1.50940  -1.59323   0.44748
O     1.52689  -2.83237   0.37405
C     0.64168  -0.82199  -0.47847
C     1.05286   0.19961  -1.40469
O     2.10580   0.75719  -1.63526
O    -0.09488   0.43837  -2.15689
N    -1.13339  -0.35860  -1.71973
C    -1.59502   1.12224  -0.04164
C    -2.94522   0.53695   0.30974
O    -3.89949   0.79128  -0.47473
O    -3.03551  -0.10971   1.39469
C    -0.48610   0.98154   0.71475
C     0.62850   1.99489   0.72817
O     0.53887   2.97753  -0.04701
O     1.58161   1.80050   1.55273
N    -0.56463  -1.23123  -0.91330
C    -1.41342  -2.25794  -0.31539
H     3.89922  -2.17205   1.62086
H     2.67747  -2.17544   2.91489
H     3.77117  -0.77399   2.72747
H     2.07534   0.14520   1.41303
H    -1.60549   1.88565  -0.81539
H    -0.50708   0.28052   1.56358
H    -1.63944  -1.98173   0.72692
H    -0.89688  -3.22152  -0.34634
H    -2.34401  -2.30480  -0.89073
28

C     3.19449  -1.53333   2.18184
N     2.26248  -0.87453   1.28453
C     1.51051  -1.59610   0.44582
O     1.52769  -2.83585   0.37615
C     0.64916  -0.83289  -0.49024
C     1.05440   0.19796  -1.40422
O     2.10617   0.75951  -1.63485
O    -0.09597   0.43522  -2.15582
N    -1.12556  -0.37655  -1.73866
C    -1.60087   1.14268  -0.02071
C    -2.94613   0.53922   0.31225
O    -3.89988   0.79021  -0.47494
O    -3.03777  -0.11318   1.39484
C    -0.49751   0.99620   0.72309
C     0.62812   1.99683   0.72837
O     0.54164   2.97915  -0.04802
O     1.58202   1.79974   1.55182
N    -0.56427  -1.22721  -0.91025
C    -1.41295  -2.25804  -0.31647
H     3.89906  -2.17195   1.62087
H     2.67731  -2.17526   2.91491
H     3.77082  -0.77369   2.72726
H     2.07496   0.14517   1.41225
H    -1.60591   1.88685  -0.81571
H    -0.50605   0.27957   1.56292
H    -1.63851  -1.98150   0.72662
H    -0.89614  -3.22116  -0.34725
H    -2.34385  -2.30413  -0.89101
28

C     3.19370  -1.53291   2.18159
N     2.26134  -0.87506   1.28325
C     1.51162  -1.59896   0.44415
O     1.52850  -2.83934   0.37824
C     0.65665  -0.84379  -0.50202
C     1.05593   0.19631  -1.40375
O     2.10654   0.76183  -1.63444
O    -0.09706   0.43207  -2.15475
N    -1.11773  -0.39449  -1.75759
C    -1.60672   1.16313   0.00023
C    -2.94703   0.54149   0.31477
O    -3.90026   0.78914  -0.47516
O    -3.04002  -0.11664   1.39498
C    -0.50892   1.01087   0.73143
C     0.62775   1.99877   0.72857
O     0.54440   2.98078  -0.04903
O     1.58243   1.79898   1.55091
N    -0.56390  -1.22318  -0.90719
C    -1.41248  -2.25814  -0.31755
H     3.89889  -2.17184   1.62089
H     2.67716  -2.17508   2.91493
H     3.77048  -0.77339   2.72705
H     2.07458   0.14514   1.41146
H    -1.60633   1.88805  -0.81603
H    -0.50501   0.27862   1.56226
H    -1.63758  -1.98127   0.72632
H    -0.89541  -3.22081  -0.34815
H    -2.34369  -2.30346  -0.89129
28

C     3.19291  -1.53250   2.18133
N     2.26020  -0.87559   1.28198
C     1.51273  -1.60182   0.44248
O     1.52930  -2.84282   0.38033
C     0.66413  -0.85468  -0.51379
C     1.05747   0.19466  -1.40328
O     2.10691   0.76415  -1.63403
O    -0.09815   0.42892  -2.15368
N    -1.10990  -0.41244  -1.77652
C    -1.61258   1.18357   0.02116
C    -2.94794   0.54376   0.31729
O    -3.90065   0.78807  -0.47538
O    -3.04228  -0.12011   1.39513
C    -0.52033   1.02553   0.73978
C     0.62738   2.00071   0.72878
O     0.54717   2.98240  -0.05004
O     1.58284   1.79821   1.55000
N    -0.56354  -1.21916  -0.90414
C    -1.41200  -2.25824  -0.31863
H     3.89873  -2.17173   1.62091
H     2.67700  -2.17490   2.91494
H     3.77014  -0.77309   2.72684
H     2.07421   0.14511   1.41067
H    -1.60675   1.88925  -0.81635
H    -0.50397   0.27767   1.56161
H    -1.63665  -1.98103   0.72603
H    -0.89468  -3.22045  -0.34906
H    -2.34353  -2.30278  -0.89158
