18

C -4.429705535 -0.611362967 -0.516571489
C -2.355319436 0.626011425 1.050230204
C 0.149198224 0.765935289 -0.330300127
C 2.517360201 1.693795465 1.100671095
C 4.077786317 -0.306170290 -0.334176050
C 1.590010232 -1.707495753 -0.919966695
H -4.757944878 0.432198204 -2.268401672
H -3.918779885 -2.545205863 -1.030404369
H -6.214724335 -0.687701346 0.513775904
H -2.935763347 2.534653330 1.602296268
H -2.090804701 -0.429975942 2.812238508
H -0.075477305 1.858577674 -2.074188452
H 3.053686906 3.673712888 0.902099392
H 2.382639263 1.244953706 3.112490478
H 5.532264144 -1.324319671 0.710079237
H 4.923570925 0.478054109 -2.043614535
H 1.184599180 -3.149970606 0.503034172
H 1.367404028 -2.545689614 -2.789291847

