18

C -4.571405854 -0.321089129 -0.483691464
C -2.378315343 0.703266944 1.066775795
C -0.104004044 1.432535745 -0.429784230
C 2.318042566 1.711222595 1.088700228
C 3.992857924 -0.098893185 -0.408453190
C 1.939959089 -1.943406214 -1.203974693
H -5.066896372 0.989367209 -1.995051730
H -4.061464507 -2.124020889 -1.356164882
H -6.240292612 -0.647450670 0.683783868
H -2.918213952 2.517242471 1.930989882
H -1.960855095 -0.556477422 2.674437978
H 0.384754834 -0.406379235 -2.074833189
H 2.983026172 3.663596618 1.161278599
H 2.125780848 1.024168518 3.043188873
H 5.564734552 -0.935444081 0.627693338
H 4.749767863 0.845571712 -2.078468587
H 1.197212195 -3.097712404 0.327951462
H 2.255630676 -3.078929962 -2.896710532

