8

N 4.937183416 1.757341493 2.533250492
C 3.322089356 0.921019915 1.328586068
C 1.420092749 -0.127274793 -0.182598358
C -2.969675805 -0.395639430 -0.546915691
O -0.923674414 0.328501032 0.493752328
H 1.781479967 -1.267316895 -1.835255563
H -4.681122030 0.228468210 0.361960202
H -2.909346658 -1.549070393 -2.237012112

