14

C 4.000800046 -0.282189306 -0.825475892
C 1.238615848 0.048051805 -0.503159347
C -0.544798102 1.111198910 -1.903077002
C -2.915943182 0.729379539 -0.386469590
C -2.552475999 -1.670799520 1.127736111
N 0.071427830 -0.962065749 1.798593666
C -2.135568854 0.663757098 2.364940844
H 4.641213755 0.529783018 -2.605967834
H 4.496758706 -2.286278235 -0.791182087
H 5.021789970 0.621560780 0.724867459
H -0.388949951 2.038835588 -3.711295440
H -4.774935443 1.365721284 -0.962642135
H -3.544410249 -3.401304805 1.545933920
H -2.671179920 1.500096251 4.144450526

