10

N -3.191883050 0.218880382 -0.156808756
C -1.137549176 -0.874435596 1.565617137
N -1.089028360 -2.938436837 2.504644328
O 3.293443111 -2.457057396 -0.833424665
C 2.954321818 -0.210289725 -0.567164957
C 0.710319137 0.908373925 0.469677955
H -3.230438981 -0.781188100 -1.789742303
H -3.161875125 2.089241632 -0.522962581
H 4.469044663 1.183859824 -0.944555094
H 0.358418118 2.906341048 0.270810982

