21

C -1.349137029 3.211974448 1.383345966
C -0.544076359 0.867763748 -0.010844307
C -1.806459425 0.579261661 -2.556666145
C -1.668565183 -2.056053658 1.970884079
C 2.153053677 -0.087674524 0.276953329
C 3.891272389 0.294550704 -1.781080875
C 1.576447724 -2.815185214 0.523213782
H -0.544242787 3.279056872 3.280726615
H -0.721894825 4.894173911 0.362089913
H -3.405547939 3.320169319 1.526010197
H -3.858888455 0.541407990 -2.329566551
H -1.358345022 2.175905550 -3.780674770
H -1.228696865 -1.140557827 -3.532947114
H -1.337043292 -1.424174595 3.899474973
H -3.580532534 -1.490468587 1.386316691
H -1.878680222 -4.127685310 2.028505873
H 2.904988345 0.640132215 2.057861237
H 3.392027194 -0.359937968 -3.655226643
H 5.646819210 1.318885858 -1.573174190
H 2.649710213 -4.018739953 1.805044398
H 1.062698371 -3.750314770 -1.230669455

