17

C -3.009550690 -1.013626719 -1.297106009
C -1.325582481 -1.795453679 0.878537965
O 1.165043821 -2.455125869 -0.102775665
C 3.193135050 -1.157815449 0.283854665
C 3.710699931 1.031184391 1.636806371
C 1.917269280 2.416556068 2.978041169
C -2.201009579 1.437133524 -2.572502050
H -4.909759257 -0.804632590 -0.508926980
H -3.112756778 -2.550172914 -2.676838044
H -1.100976569 -0.297957464 2.274702567
H -1.993423258 -3.544865994 1.737667214
H 4.769383352 -2.073636369 -0.677709702
H -0.339836970 1.252326378 -3.445095031
H 5.717445437 1.513634702 1.520278922
H 2.892477621 4.007361421 3.903407511
H -3.532035189 1.958313281 -4.057990982
H -2.097539684 2.978711417 -1.208007255

