17

C -2.863170425 -0.812361192 -0.887064050
C -1.233557505 -2.273413547 1.027331221
O 1.132443514 -2.854538251 -0.053083446
C 2.532018069 -0.779780991 -0.667266565
C 3.080464703 1.153966285 1.287704243
C 1.523333268 3.028465412 1.757539896
C -1.515710887 1.450177793 -1.954811184
H -4.579757291 -0.226877741 0.101160706
H -3.394786138 -2.115881139 -2.394445894
H -0.983338151 -1.109829955 2.717988039
H -2.092220294 -4.075590418 1.525677020
H 4.087375184 -1.392563124 -1.874961165
H 0.966838083 0.687109880 -1.781332719
H 4.908593976 0.879481581 2.205079765
H 1.800123456 4.311348189 3.347814066
H -1.322246850 1.449502840 -4.004183393
H -2.098789682 3.267493279 -1.264979077

