14

C 3.335245441 0.872590222 -0.609367832
C 1.067117023 -0.542831313 0.435227586
O 0.151873245 0.471318407 2.671023470
C -3.201890718 -1.484266487 0.626780544
C -1.364054054 -0.392647332 -1.133030576
O -2.420902513 2.042693672 -0.610474135
H 2.863441185 2.850508788 -0.955270823
H 4.862406028 0.809228291 0.771386034
H 4.007667708 0.032675179 -2.372534255
H 1.545789091 -2.568244913 0.618267271
H -5.191291562 -1.181696371 0.243282018
H -2.665387324 -2.546418916 2.282867998
H -1.441485204 -0.856232545 -3.134693701
H -1.498220074 2.260390027 1.107384177

