18

C 5.582738748 0.737961994 -0.340965231
N 2.884944530 0.438412417 -0.783238207
C 1.309386488 0.043408767 1.045042830
O 1.048904391 -0.237664260 3.253227812
C -1.832184172 -0.129140085 -0.744316539
C -2.745913694 -2.781606728 -0.151123836
C -3.361891713 1.970446853 0.469641539
H 6.145700293 2.689110209 -0.705293600
H 6.628008326 -0.484913399 -1.628644757
H 6.091307739 0.252894413 1.597549351
H 0.448650008 0.276909525 -1.640760604
H -1.969573422 0.125835275 -2.828574056
H -2.643405141 -3.121577320 1.880424363
H -1.605586961 -4.211922120 -1.103818112
H -4.708806442 -3.030510511 -0.741561866
H -5.341119651 1.862834301 -0.108912457
H -3.286103982 1.796332855 2.523166857
H -2.645945462 3.834424968 -0.047603618

