10

O 4.082628003 -0.095664645 -0.959015883
C 2.349538613 -0.235007135 0.699828096
C 0.180163314 0.964298820 -0.294855970
C -2.178956002 -0.522602305 -0.831179633
N -2.180193716 1.490059140 1.006077074
H 2.775947943 -1.086896805 2.530199699
H 2.505979628 1.140262010 -2.051234421
H -3.142398436 -0.135606255 -2.595613533
H -2.332791879 -2.455784288 -0.158262314
H -2.209391024 0.795421763 2.794130944

