15

N 3.977897511 0.403522082 -1.271050522
C 2.082077719 -0.790222219 0.271626040
C 1.534965912 0.412405911 2.829606905
N -0.585309143 0.786284767 3.539064308
C -0.496769654 -0.971479987 -1.089507008
C -1.944624029 1.413819425 -1.687104512
C -2.775660308 -0.373731910 0.313546571
H 5.668363184 0.455429079 -0.385959005
H 3.469932117 2.192144987 -1.710862035
H 2.731233470 -2.706797043 0.710781950
H -0.530171773 -2.496622271 -2.456286218
H -1.137772503 3.207785606 -1.089926660
H -2.947926456 1.524703584 -3.472094852
H -4.503063418 -1.471607477 0.266585762
H -2.475065806 1.038244559 3.681588095

