18

C 3.497031867 -1.192943643 0.103758625
C 1.054546206 0.137198236 0.859592516
C 1.058593697 2.888795508 0.003738275
C -1.270107605 -1.341832406 -0.077444170
C -3.789028039 -0.305616940 0.858425534
C -1.296158538 -1.509481670 -4.979014753
N -1.291369821 -1.460380840 -2.781619634
H 3.515088900 -3.158692467 0.734341430
H 5.127116293 -0.246400293 0.939398371
H 3.741587259 -1.180456144 -1.945620973
H 0.907941140 0.093103367 2.925044065
H 2.735735402 3.849542815 0.721478650
H -0.588949965 3.921611772 0.687504852
H 1.091956679 3.019394424 -2.056387383
H -1.071798442 -3.292154753 0.578740947
H -5.332337168 -1.543286281 0.286485126
H -3.772503424 -0.186340224 2.916656100
H -4.153877462 1.569478452 0.089519766

