18

C 3.485245192 -1.197490986 -0.142465262
C 1.094272954 0.130266702 0.762618952
C 1.124857473 2.932883745 0.112869127
C -1.297749007 -1.290557012 -0.023407168
C -3.814988813 -0.151908979 0.693662751
C -1.274445207 -0.832471563 -3.506122300
N -1.433147733 -3.017835929 -3.056787607
H 3.445043990 -3.216720703 0.281569948
H 5.142655227 -0.379886616 0.771325922
H 3.710506442 -0.987468204 -2.181582703
H 1.032969105 -0.038488638 2.832909372
H 2.829848110 3.805094056 0.878800713
H -0.494855437 3.929439434 0.908803970
H 1.111715127 3.211363802 -1.929252657
H -1.157746644 -3.186994121 0.757251261
H -5.351610711 -1.402946621 0.139532142
H -3.870971307 0.071916495 2.748039900
H -4.118131800 1.683347831 -0.183167147

