11

O 3.122877244 1.850098549 -2.120340969
C 2.344426582 -0.598229522 -2.033795216
C 0.442386700 -1.457370601 -0.691344171
C -1.618319104 -0.904719780 1.074931589
H -3.286156044 0.064976929 0.381948893
H -1.168373009 -0.525188754 3.038752382
C -1.132614836 -3.576553206 0.092257998
H -2.484382874 -4.347784887 -1.240948073
H -0.369790868 -4.942384868 1.415834912
H 3.496607907 -1.798816163 -3.224917844
H 2.045523367 2.835280297 -1.039260532

