11

N -4.024222162 0.005176716 0.721792477
C -2.009324718 -1.254477756 -0.342497497
O -2.216474700 -3.178104622 -1.518316234
N 0.307946254 -0.067071804 0.215133811
C 2.520857876 -0.757929162 -0.855502846
N 4.435072432 0.589332880 0.031437900
H -5.718311234 -0.655844154 0.172637706
H -3.921678158 1.884291839 0.976122156
H 0.224912293 1.308884143 1.557855541
H 6.175141526 0.240988288 -0.633491566
H 4.301490111 1.959000971 1.372981820

