12

C 4.770539127 2.781856587 -0.607186692
C 3.279316955 1.154414811 -1.103723342
C 1.521164391 -0.837022969 -1.709231145
N 1.225595220 -3.018904739 0.040808957
C -0.709883612 -1.212001683 -0.130373056
C -2.875605938 -0.495264525 0.699670720
C -5.068192459 0.264366505 1.516290410
H 6.090917699 4.233925921 -0.166367557
H 1.436508800 -1.368442924 -3.686583700
H 2.285505319 -2.802171162 1.625858847
H -6.807375423 -0.422314501 0.677114911
H -5.224761333 1.599703450 3.063175561

