13

N -4.246468203 -0.459907579 -0.271458307
C -1.704362719 -0.260000558 0.016223053
C -0.452670004 2.181123877 0.595128784
C 1.987724317 1.655699833 0.818560023
C 2.313390968 -1.174054357 0.487358818
O 4.147521274 -1.863763952 -1.299273770
N -0.177815102 -2.138575201 -0.120879676
H -4.911209131 -2.114550300 -0.923811305
H -5.261229362 1.092940622 -0.653874020
H -1.391456236 3.988630286 0.769115679
H 3.524495219 2.940045561 1.217197711
H 3.335800831 -1.832613593 -2.922601235
H 2.934995551 -1.990011358 2.289264815

