13

N -4.241003531 -0.712600226 0.186927759
C -1.692957126 -0.092462995 0.011107262
C -0.568567379 2.260648541 0.398334822
C 2.033688976 1.902532987 0.409939384
C 2.446397621 -0.675413572 0.057952968
O 4.606910369 -1.876926669 -0.660037116
N 0.035274138 -1.940396901 -0.285174507
H -4.697136722 -2.277593168 -0.796825055
H -5.417239180 0.731523546 -0.197563855
H -1.556063060 4.012942028 0.750592357
H 3.490684504 3.310759371 0.631135796
H 4.307409754 -2.668941351 -2.266648592
H 1.288266418 -1.973655854 1.758123367

