15

C -2.079937320 1.423744966 0.917740352
N 0.030529943 -0.315855703 0.268986961
C -0.111064193 -1.525544644 -2.274659972
C 2.552797158 0.925236197 0.551790372
O 2.869792215 1.959718897 2.941413496
C -1.909635277 -3.475547080 -2.260359659
N -3.319182958 -5.150847115 -2.128870134
H -3.829844499 0.353471817 0.794021041
H -1.818283328 2.201311519 2.805145666
H -2.096647734 2.935542948 -0.477281098
H -0.017967308 -1.776311660 1.522136051
H -0.338232857 -0.093067027 -3.723673260
H 2.605822514 2.437255901 -0.846222231
H 3.937758783 -0.516057352 0.060979723
H 3.770840219 0.804135158 4.006099783

