15

C -2.665059948 1.426448389 1.263024326
N -0.444067120 -0.135022065 0.770410331
C -0.057294266 -1.055601013 -1.820881796
C 3.183186039 0.262084397 0.182095332
O 3.623420587 2.334230093 1.601137866
C -1.504003977 -3.207508477 -2.499578407
N -2.569105872 -5.065569973 -2.946285512
H -4.361774283 0.504924559 0.513217377
H -2.889517724 1.758325474 3.287223418
H -2.435053652 3.241515441 0.316589200
H -0.383889037 -1.627317432 1.962708670
H -0.102367239 0.471958136 -3.183123470
H 3.925149207 0.616282643 -1.682849207
H 3.655443526 -1.566008481 0.978762425
H 3.103081475 2.051785976 3.320935735

