11

C 4.587309808 -0.567868596 0.913498786
C 2.723279839 -0.109783318 -0.924318961
C 0.336204557 -0.723420401 -0.195154870
N -1.041295276 -1.649682889 1.661903842
C -2.435550272 -0.558491927 -0.473902210
C -3.587065695 1.914612627 -0.248390175
N -4.528856290 3.856458570 -0.054422487
H 6.417904702 0.108785977 0.178241274
H 2.939520274 0.713642769 -2.799210169
H -1.009122387 -1.093281226 3.488526021
H -3.497543492 -1.905127544 -1.592770763

