12

C -3.525313490 -0.304079383 -0.391589350
C -0.713465324 -0.441096319 -0.231935309
C 0.908523232 -2.367396336 -1.059442373
C 3.233552588 -1.327306629 -0.451445782
N 3.054664310 1.039391793 0.564540694
N 0.566607185 1.515121728 0.815053485
H -4.314214374 1.308763200 0.627314259
H -4.110787209 -0.188423949 -2.364968415
H -4.328704964 -2.035721055 0.380465439
H 4.301172751 1.964308229 1.663295644
H 5.119032687 -2.092141625 -0.671939386
H -0.036364945 3.266930122 1.243999168

