14

C 5.582060129 -0.072880028 -1.506153257
C 3.391639763 -0.422046784 -1.041700925
C 0.757123099 -0.739393745 -0.465736950
C -0.566570090 1.619069439 0.448135606
C -3.360243513 1.323803549 1.037182514
C -0.336324612 -2.985937314 -0.754606702
H 7.527973877 0.216061534 -1.924063677
H -3.679760466 -0.073621897 2.521499287
H 0.443281636 2.296757560 2.121299872
H -0.292452012 3.085776478 -0.984144856
H -4.142736336 3.115675120 1.689103672
H -4.428840361 0.739937382 -0.628659857
H 0.731416645 -4.597731175 -1.419352770
H -2.317702964 -3.273980557 -0.338416841

