14

C 5.513480134 -0.630356888 -1.624744551
C 3.412137017 -0.517135346 -0.757429065
C 0.929646402 -0.443211490 0.272387372
C -0.357301819 2.016067998 0.938480286
C -2.886670757 0.599874548 0.865589146
C -1.123669326 -1.830577035 -1.042670921
H 7.376400248 -0.735582980 -2.372967532
H -1.676399610 -1.081871230 2.004047128
H 0.074015413 2.851567488 2.773088069
H -0.178407834 3.486179926 -0.518679611
H -4.292886680 0.786120229 2.386169347
H -3.990659379 0.985873766 -0.856435048
H -1.212505124 -1.719087767 -3.133388373
H -1.903998829 -3.610346894 -0.395379933

