12

C -2.158923337 -3.022946108 0.462095561
C -2.088832771 -1.789821274 2.639045468
H -2.349080959 0.238863461 2.756338198
H -1.767331001 -2.777539149 4.402602100
C -2.588403850 -1.896315996 -2.104395006
C -2.978669579 0.949705977 -2.165719794
H -3.275266573 1.599717888 -4.099472720
H -4.626691550 1.507047910 -1.055383487
H -1.339179929 1.948663942 -1.409055010
H -0.983468164 -2.407325190 -3.309391568
H -4.221318764 -2.842444797 -2.957254465
H -1.882229430 -5.059971414 0.482839538

