19

C 4.950069005 0.254264162 -0.052965905
C 2.362266296 1.473690578 0.189339541
O 1.119098041 1.078285947 2.315031666
C -0.937832091 -1.428760185 1.544384023
C -3.309517991 -1.609026187 2.593418616
C -1.412467231 -0.964018007 -1.132220715
C -3.085046873 1.130500384 -2.078530816
H 4.826329266 -1.773502166 0.311939775
H 6.233394375 1.064515475 1.344837486
H 5.751910810 0.541099095 -1.933159741
H 1.089016908 0.401985357 -1.462156975
H 2.296847360 3.437816543 -0.491957580
H 0.317335566 -3.001904064 1.935579176
H -4.770194215 -0.254491647 2.144155826
H -3.759832319 -3.031755009 3.994224026
H -1.247421500 -2.597690890 -2.369096182
H -2.404483250 1.762240287 -3.919812111
H -5.034230150 0.513509604 -2.341797633
H -3.051261462 2.738560014 -0.791644370

