9

O -4.013590336 2.208778583 1.301086679
C -2.206147290 1.319899451 0.462841190
C -0.158511475 0.323745310 -0.509244927
C 2.425508513 1.451777352 -0.098607100
C 4.079939528 -0.200501472 1.390008403
N 5.372655627 -1.508344206 2.536090202
H 2.293389955 3.265363935 0.872711958
H 3.354887311 1.813330355 -1.905980018
H -0.389288571 -1.396663206 -1.586855429

