15

C -2.712624562 0.337184664 1.291514441
C -1.867967459 -1.063736757 -1.006459441
N 1.299843542 0.150483635 -2.456757723
C 1.857055481 -1.639808012 -0.565727915
C 2.939485257 -0.355640674 1.454125129
N 2.983302639 2.121112015 0.931717787
C 1.972637008 2.336316369 -1.373505444
H -4.742943721 0.681765924 1.123807994
H -2.339132496 -0.701443963 3.025811121
H -1.793905709 2.181663791 1.426830832
H -2.688954098 -0.370598083 -2.745116230
H -2.093675308 -3.098457806 -0.911835827
H 1.941008416 -3.628332306 -1.005956056
H 3.646707001 -1.116665793 3.210054373
H 1.719809813 4.129934727 -2.315483575

