11

N 4.112240333 0.419098433 -0.305619132
C 1.770704314 0.112399530 -0.093082259
C -0.248988198 2.080962345 -0.549493164
C -2.741217158 0.858841104 -0.398682002
C -2.093405984 -1.703669567 0.429311590
O 0.595927571 -2.056492641 0.618300587
H 5.071130076 -1.192148277 0.116060913
H 0.039876415 3.263171362 -2.212835145
H -0.293528230 3.439149197 1.031333509
H -2.880324603 -3.059652280 -0.927910084
H -2.994918880 -2.098347712 2.253255952

