11

N 4.197110276 0.304885900 -0.463957413
C 1.851762698 0.019505111 -0.223412266
C -0.117001921 1.938877599 -0.879123024
C -2.565273470 1.004215694 -0.565635242
C -2.083180298 -1.554880375 0.525391427
O 0.613211422 -2.034587899 0.634131975
H 5.155268828 -1.274890596 0.066906226
H 0.392309052 3.709893868 -1.775137290
H -1.396924442 2.705371415 0.944013989
H -2.944976405 -2.965124287 -0.714044071
H -2.875735158 -1.789010072 2.415259470

