15

C -3.656970028 -0.823744449 -1.199078942
N -1.709014979 0.163093853 0.422571429
C 0.438048852 -1.075760763 1.279656712
C 2.143379659 0.668298620 2.404641004
C 3.068154857 -0.877785476 -0.745892816
C 0.823725344 2.997268226 1.707451344
N -1.367429275 2.664594829 0.625403141
H -3.110417051 -0.750777418 -3.194143106
H -5.369904942 0.283839717 -0.941081947
H -4.038530167 -2.781067872 -0.683205744
H 0.287137838 -3.080790095 1.655329750
H 4.423625246 0.654563259 -0.825732800
H 2.015549287 -0.900460980 -2.521794141
H 4.068421156 -2.634080155 -0.420219513
H 1.426966646 4.903098880 2.129368531

