16

C -1.078772155 0.396741121 -2.152554998
C -1.103509312 1.895148165 0.350204348
O -3.446003725 2.562130213 1.406222291
C 0.160371437 -0.360349059 1.652286459
C 0.947955675 -1.347456212 -0.976036362
O 0.611374022 -3.961950773 -1.197602442
N 3.455069044 -0.720023467 -1.864615160
H -2.844515389 -0.642870409 -2.361358037
H 1.408058406 -4.452418965 -2.756026185
H -0.611333223 1.373115726 -3.908543579
H 0.154100060 3.540899459 0.271115190
H -4.154212360 3.928717029 0.450405507
H 1.647345619 0.001687393 3.030563272
H -1.281033321 -1.584304695 2.469649756
H 4.783844198 -1.240095031 -0.591084902
H 3.656622961 1.142125714 -2.230793382

