13

C 3.451186677 0.284939538 1.315388221
O 1.666820607 -1.402226446 0.295801911
C -0.182304959 -0.184492677 -1.109708275
C -2.677553343 -1.451717939 -1.266172099
C -2.398822254 0.956486106 0.234704930
H 2.552894290 1.668386226 2.569664078
H 4.462562770 1.308102231 -0.178093308
H 4.801920127 -0.831608242 2.394549243
H 0.528373094 0.781668676 -2.782035261
H -3.688624698 -1.400048934 -3.041829460
H -2.870737739 -3.188331385 -0.205282650
H -3.218559180 2.679947021 -0.499408524
H -2.427155372 0.778895824 2.272421176

