14

C -1.295102238 -2.153293805 -0.266815798
C -2.380434463 0.496631723 -0.149765350
O -0.781337540 2.255906330 -1.274672390
C 1.619643954 2.302703489 0.048459872
C 3.194552402 -0.020040678 -0.023911442
O 1.208009183 -2.240925300 0.854491087
H -2.479968511 -3.535262576 0.705563264
H -0.990525063 -2.741062824 -2.214560729
H -4.187222738 0.518660657 -1.149035706
H -2.755229647 1.001983190 1.839800335
H 1.201545752 2.899652722 1.998011664
H 2.735705337 3.796997544 -0.833988730
H 1.159372016 -2.115931992 2.668323183
H 3.411284940 -0.653874246 -1.984975710

