14

C -1.479274984 -2.199916788 -0.267180119
C -2.409854759 0.509609644 -0.200539059
O -0.698230522 2.144147020 -1.379911786
C 1.544974052 2.263321710 0.122473547
C 3.100679633 -0.089274366 0.212078880
O 1.092459913 -2.498274288 0.547725684
H -2.657901627 -3.435582679 0.890565089
H -1.474764680 -2.882472787 -2.213532132
H -4.206696007 0.611303158 -1.208771952
H -2.739788147 1.113853578 1.763299176
H 0.967282282 2.883477195 2.020457302
H 2.751336887 3.740241755 -0.670283192
H 1.994543941 -1.759026638 2.155633021
H 3.947826431 -0.561137486 -1.602681772

