12

C 2.635689295 -0.156480510 0.194001741
C -0.082670926 0.294408105 -0.658530248
C -3.361833925 -2.678665031 1.002234940
N -1.912678398 -0.701973124 1.187767495
C -0.553812757 3.000189988 -1.078719186
N -0.895543913 5.120931994 -1.361012975
H 3.961962735 0.585631644 -1.195409812
H 2.951276071 -2.179167916 0.415612588
H 2.997152215 0.775457751 1.996743545
H -0.450144649 -0.695365546 -2.430784742
H -3.035711756 -3.488333080 -0.902407417
H -1.967596485 0.293008328 2.824498541

