11

C -2.570341621 -0.462604823 -0.657421735
C -0.080361151 0.467026007 0.433202442
O 0.912261110 -1.416667998 2.076642564
C 2.116706402 1.065931787 -1.151792457
C 4.152335389 -0.415950830 -0.475635694
N 3.261257882 -1.989503399 1.322623472
H -3.909102825 -0.869933513 0.851001537
H -3.370010127 0.988554173 -1.880191644
H -2.258778998 -2.171536125 -1.762124239
H -0.379143897 2.189106402 1.562336176
H 2.148234385 2.652588606 -2.443119664

