12

N -3.616052242 0.416068711 -1.556850830
C -5.209924602 -0.562293867 -2.710882801
C -1.642594262 1.547320809 -0.122236292
C 0.152208255 -0.414153814 0.903269378
C 2.348922883 -1.258340205 -0.586834568
N 2.660279016 0.535402421 1.488874906
H -0.605301350 2.863315481 -1.322722890
H -2.493352686 2.625830934 1.416706057
H -0.700577316 -1.778372425 2.176444027
H 2.662885024 -0.481338037 -2.456018066
H 2.992407132 -3.185681271 -0.331919112
H 3.377880799 -0.313473250 3.043683150

