12

N -4.901869688 0.123559535 -0.829888138
C -3.473199945 -0.131285982 -2.532299563
C -1.689607019 1.447867509 -0.193049281
C 0.136301353 -0.447309796 0.829958284
C 2.338230510 -1.261595258 -0.659804944
N 2.627043382 0.612474145 1.346635182
H -0.830345187 2.784326289 -1.492023076
H -2.634656144 2.500512083 1.296188528
H -0.661660220 -1.783516392 2.164241083
H 2.577227632 -0.539009417 -2.561059947
H 3.052322108 -3.156086686 -0.351666769
H 3.386995780 -0.155648672 2.924285415

