14

C -3.652875067 -1.193852621 -1.098628055
C -1.941690003 0.853982202 -0.163041129
O -2.166149820 3.034789399 -0.837947933
C 0.172950929 0.124368678 1.647428011
N 2.628855384 0.057543105 0.408745928
C 3.632014456 2.107284926 -0.308058258
O 2.708391519 4.452811273 -0.264543289
H 0.861531110 4.410366569 -0.146408005
H 5.545866922 2.060322039 -1.055739284
H 0.142872763 1.498205315 3.201419704
H -0.182122847 -1.743624670 2.439864536
H -2.508768240 -2.676121384 -1.970502600
H -5.014069097 -0.453441976 -2.447781581
H -4.632870538 -2.059278192 0.500082457

