15

O 4.370558808 -1.120264588 -1.875806818
C 2.532148801 -0.695481102 -0.108025740
C 1.319032199 1.935565173 0.027738817
C -1.144506202 0.697856696 -0.835936565
C -3.172825823 0.152326968 1.085325460
C -1.702536110 -2.139845569 2.112799714
O 0.097378381 -1.823706313 -0.817719019
H 3.953844793 -0.279040399 -3.430195070
H 3.141120849 -1.530383590 1.665448080
H 1.255915705 2.731011238 1.920623676
H 2.128010951 3.304187338 -1.281161029
H -1.771473772 1.200037089 -2.733926953
H -3.425764040 1.657767458 2.474138253
H -4.991719873 -0.219833560 0.172496412
H -2.682219662 -3.881151583 1.555131311

