11

O -1.747291136 2.539936797 0.832581791
C -2.109561498 0.060010124 -0.060438298
C -0.478086253 -0.524961344 -2.353967620
C 2.305214255 -0.411612094 -1.814386769
O 3.197830339 0.229724122 0.177613166
H 3.566086050 -0.953861806 -3.397577188
H -0.860955783 0.819678098 -3.883252808
H -0.901945643 -2.400767406 -3.123728698
H -4.101232735 -0.102034628 -0.568710450
H -1.730671826 -1.331071152 1.428891843
H -0.055944473 2.619397966 1.493836155

