12

C 2.245005313 1.252111120 -1.217140906
C 1.733412042 -1.072900851 0.338193570
H 2.579531983 -2.770653308 -0.477948889
O 2.611835641 -0.810152291 2.944287429
C 0.135156652 -1.291153126 3.721829605
H -0.367749472 -1.440160695 5.692573863
C -0.868334427 -1.512253029 1.434108904
O -3.138915142 -2.165206714 0.471973480
H -3.488174154 -1.158042405 -0.995261604
H 1.442884036 2.916550861 -0.303286417
H 4.273324651 1.533743108 -1.454436272
H 1.409038399 1.055482849 -3.096074351

