14

C 3.160878030 1.402283025 0.362680244
C 1.406860830 -0.847282821 0.172317360
O 0.135358380 -1.513623420 2.493215132
C -2.336020873 -1.536621387 1.153804619
C -1.138598805 -0.424603961 -1.015993317
O -1.759073144 1.346723130 -2.610033107
H 2.154964833 3.074895038 1.030863497
H 4.653922106 0.979589407 1.716160128
H 4.062330984 1.808406315 -1.451705429
H 2.399137026 -2.509030931 -0.569752540
H -4.061599074 -0.335126695 1.574436716
H -3.012694400 -3.471293438 1.123578090
H -5.387783924 -0.814658948 -1.227161897
H -0.272755453 2.341987985 -3.009561499

