12

N 0.928658566 0.061524513 1.550141792
C 2.376240311 0.137206513 3.858043464
H 1.679454314 -1.316961871 5.144553306
H 4.413127440 -0.145046023 3.614751581
H 2.091776284 1.956753652 4.794095244
C 2.015230358 0.062846792 -0.565841071
O 0.587677613 0.007217733 -2.683339231
H -1.145310772 -0.026463101 -2.113213526
C 4.790028534 0.126120737 -1.161902095
H 5.074961742 0.084469397 -3.195687333
H 5.747289598 -1.493060214 -0.319896297
H 5.650394798 1.836566863 -0.399305385

