18

C -4.221179302 -0.007867535 -1.957312425
C -3.387746133 -0.369288201 0.518705633
N 0.196981291 -0.725263129 0.791278066
C 1.197197776 -0.272741620 3.282278137
C 1.511235884 -0.305425416 -1.221103435
O 0.484003023 -0.580325652 -3.424245947
C 4.216388185 0.548719454 -1.187409675
H -4.698062839 1.888081231 -2.567295250
H -5.225601657 -1.538821728 -2.877338023
H -1.576840599 -0.443302990 -3.103943643
H -3.751933906 -2.158018838 1.449912797
H -3.370541462 1.222847161 1.815185878
H -0.248980469 -0.772093906 4.667626910
H 2.852183973 -1.446084042 3.668159172
H 1.713894365 1.706413261 3.604195023
H 4.948766209 0.563184457 -3.106675129
H 5.370375729 -0.694289554 -0.016764705
H 4.345020728 2.451627287 -0.397011503

