13

O 4.401865390 -1.655178137 0.034120158
C 3.340482004 0.332409383 -0.970799610
N 0.907597455 0.278583898 -0.997131659
C -1.174270428 2.095788116 -1.023811662
C -2.737379351 0.148989277 0.515012957
C -0.474610026 -1.685580769 0.305958622
H 4.462671580 1.944000571 -1.542231191
H -0.712324931 3.896090624 -0.131135692
H -1.871286290 2.411916545 -2.935990133
H -3.161690197 0.784893588 2.430704882
H -4.497466049 -0.417754989 -0.396442223
H -0.758620651 -3.353958095 -0.873819130
H 2.875242525 -2.418639529 1.016467695

