14

C 4.135640037 1.754051745 -0.179666373
C 2.987206795 -0.570280019 0.843865308
C 0.331128375 -0.716590968 0.413155093
C -1.339985879 -2.374945432 1.398551345
C -1.738838561 0.740730897 -1.021995428
C -3.607078689 -1.203010177 0.157557333
H 4.007055399 3.050989152 1.449454142
H 3.157292350 2.678340395 -1.761641263
H 6.150184877 1.562557482 -0.567615921
H -1.093180409 -3.958611249 2.676458568
H -2.038789611 2.691295204 -0.425374176
H -1.614424190 0.677776258 -3.078808547
H -4.996461838 -0.410967943 1.462315448
H -4.596447125 -2.425772054 -1.178696450

