14

C 4.263280189 1.922105523 -0.077586089
C 2.928428413 -0.357364407 0.820468174
C 0.552025756 -0.829091731 0.869109554
C -1.710497186 -1.801408073 1.822518998
C -1.860392643 0.304211626 -1.096258622
C -3.557574667 -1.825052157 -0.304427074
H 6.081334274 1.484684816 -0.945935066
H 4.672752433 3.105758442 1.570247646
H 3.149509475 3.083162249 -1.394061186
H -2.286785589 -1.442066560 3.766374078
H -2.469627269 2.166499079 -0.507429070
H -0.975551742 0.264735210 -2.947334594
H -5.480814518 -1.314196238 0.202699507
H -3.514965935 -3.473906438 -1.531096679

