12

O 3.252617582 0.657509248 -1.414573388
C 1.682019750 -0.064061527 -2.882438999
C -0.750067712 -1.338070169 -2.134138029
C -1.232675759 -1.262852058 0.686501218
C -2.010429943 1.313362472 1.611821772
O -2.493168381 3.067116698 0.257746360
H -2.154970899 1.506599233 3.693091501
H -2.737719048 -2.576739667 1.228679763
H 0.443234714 -1.835219469 1.751162826
H -0.647740743 -3.284566973 -2.831741861
H -2.284088837 -0.430637743 -3.179411954
H 1.977087011 0.150059712 -4.945697294

