14

O 3.253949479 1.895284376 1.338965238
C 2.347017283 0.460257802 -0.501616707
C 0.382217329 -1.521508000 0.170796641
C -1.935835499 -0.178649076 1.231481981
C -3.463951248 1.228635600 -0.701639814
O -2.959077182 1.343365389 -2.912486532
H 4.698891087 0.097463211 -0.006498919
H 4.351589548 -1.127905563 -1.308670793
H 2.051977991 1.323960434 -2.369435993
H 1.158380401 -2.757301127 1.625395014
H -0.117052471 -2.646751714 -1.485207042
H -3.206081640 -1.519519574 2.163922456
H -1.370449795 1.170890124 2.696207434
H -5.165599092 2.195827950 0.048085480

