9

C -2.364904373 -0.317020738 0.812154645
C 0.265363563 -0.285066036 -0.100353603
C 1.540903185 0.111989498 -2.431094487
C 2.993467911 1.896495785 -0.857662028
C 2.690834489 -0.149560050 0.864647571
H -2.565834718 -1.542441725 2.455306943
H -3.637937935 -0.924042343 -0.686567661
H -2.897662368 1.597868186 1.378014519
H 3.901872506 -1.281719084 2.054893706

