9

C -2.544010612 -0.420904879 0.876517035
C -0.090526706 -0.387362108 -0.380368610
C 1.492875172 0.001704042 -2.118399143
C 3.984517883 1.531289620 -1.357960859
C 2.896733567 0.456098156 0.654250189
H -2.704284029 -1.956056456 2.240046974
H -4.032221184 -0.607082341 -0.535722938
H -2.798979339 1.371006395 1.871991215
H 3.731062524 -0.811705968 2.026213918

