14

C -2.568131416 -2.244544031 -0.441958431
C -0.843322692 -0.037780482 -0.175460239
N -1.613968218 2.027412364 0.775380688
O -4.036314066 2.465069627 1.627340222
C 1.828878455 -0.212466689 -1.025481198
C 3.881213547 1.023921890 0.327592584
O 3.473254086 -1.615168458 0.567765077
H -4.384762254 -1.828520012 0.427301300
H -2.859282503 -2.684837405 -2.438385730
H -1.721442990 -3.899195293 0.451350654
H -2.116039102 3.936537699 1.555662419
H 2.070162844 -0.621903047 -3.027662316
H 5.577654629 1.560448755 -0.693844807
H 3.452625344 2.132922368 1.998355878

