12

O 4.444083213 2.134295462 -0.475452353
C 2.348951947 1.333582731 -0.271107631
C 1.411838179 -1.338857240 -0.717413472
C -1.166091353 -1.369040116 0.559863546
C -1.933945073 1.409814774 0.403715401
O 0.379405530 2.807777412 0.421801346
H 1.275381585 -1.614963858 -2.760198890
H 2.772164239 -2.696670795 0.009446004
H -2.534989116 -2.607641394 -0.348809031
H -0.986328132 -1.945919172 2.531490212
H -3.068286477 2.050692448 1.995870945
H -2.942184542 1.836929747 -1.349206079

