12

O 3.597097533 0.324892732 -1.554344467
C 2.048072399 -0.948549880 0.183156678
C -0.455851150 0.357368092 0.539621178
O -0.056729635 2.839984979 1.266610535
C -2.759945912 -0.993138440 1.216991504
O -2.340981668 -0.006350103 -1.278011857
H 3.637359036 2.073663883 -1.065396050
H 2.961838015 -1.115767663 2.038864935
H 1.717327487 -2.842624491 -0.555271002
H -4.196803649 -0.014755870 2.308772345
H -2.784571802 -3.041809089 1.349521531
H -1.533711247 3.805545776 0.839228733

