12

O -1.338245139 5.307028217 0.799607752
C -0.385839858 3.298156504 0.477915195
C -1.674269208 0.757890347 0.163796113
C -0.020407398 -3.477146676 -0.441952951
N 0.432655952 -1.012339589 -0.148077049
C 2.527988191 0.322209661 -0.062484871
O 2.119548890 2.894070187 0.323076101
H -2.785648908 0.279766583 1.826934173
H -2.880329611 0.747737945 -1.502635268
H -1.957291865 -4.088415630 -0.477511739
H 1.549092578 -4.747933335 -0.684306471
H 4.429372187 -0.364000199 -0.202120571

