12

O -1.568571932 4.983157599 0.266145890
C -0.402186310 3.074430581 0.217984765
C -1.568179700 0.333431195 0.376820384
C -0.265950001 -2.946505269 -0.668660938
N 0.934376670 -0.754881827 -1.331453614
C 2.828047994 0.404658507 -0.291417954
O 2.160265477 2.936603236 -0.081013466
H -1.730489052 -0.174974882 2.373420877
H -3.375135310 0.328289629 -0.586083270
H -1.668672520 -3.625869615 -1.990522321
H 0.654135501 -4.321497795 0.564496418
H 4.018990645 -0.319817344 1.222523678

