12

C -3.557379477 0.121995049 0.380662405
C -1.068322366 0.281226226 0.108335466
C 0.782410847 -1.764716735 -0.615368091
N 3.053837083 -0.292355031 -1.198519847
N 2.839502928 2.103700532 -0.231067887
C 0.545810598 2.506513173 0.415322477
H -4.664093633 1.760405155 0.908578563
H 0.167083707 -2.867182427 -2.244023147
H -4.566130627 -1.635111664 0.091338873
H 1.098025629 -3.057777407 0.973058759
H 4.739663043 -1.061935054 -0.768780423
H -0.044414479 4.343696237 1.085997711

