11

O 2.061062792 0.350867320 -0.244129693
C 0.151992978 -1.370777586 0.442932963
C -2.017280446 -0.096906422 1.834488504
C -3.394810553 1.820590740 0.261126816
O -2.770085597 2.441978723 -1.836440402
H -5.082407735 2.688928644 1.148967808
H -3.403132378 -1.483605291 2.503265830
H -1.325037786 0.878838545 3.526277666
H 1.033207475 -2.773176319 1.670703314
H -0.584142219 -2.367293421 -1.218867889
H 1.346246541 1.456505352 -1.497330315

