8

O -0.470602125 3.670829790 0.080242307
C -1.904865306 1.889249044 0.098540525
C -1.140080086 -0.736638903 -0.068724142
N 1.246502658 -1.234421960 -0.282543309
C 3.427202348 -1.430469896 -0.723912599
H -3.972817492 2.164947992 0.246120954
H -2.465770545 -2.288565390 -0.049055382
H 5.041565368 -1.662894607 0.503310336

