8

O 0.397117328 2.888049218 0.166980433
C -1.508536750 1.569106403 0.150542462
C -1.376684209 -1.123961648 -0.033421432
N 1.002691176 -1.830404503 -0.266644627
C 3.024969078 -0.898812837 -0.541408897
H -3.398859858 2.426068080 0.230992884
H -2.920883625 -2.441694943 -0.136784802
H 4.787452856 -0.612443777 0.428681953

