10

N -2.302988309 -1.758688849 -0.354309475
C -0.865404198 0.352152504 0.618627604
C 1.902546159 0.076315531 0.418862028
C 4.133414998 -0.253953944 0.280441650
C -2.271509043 4.458983080 -1.653728244
N -1.639629395 2.615574616 -0.634110319
H -1.742133544 -2.184379970 -2.133038133
H -2.014988492 -3.295947641 0.742738202
H -1.350239041 0.574205056 2.614086437
H 6.122911896 -0.526431003 0.147034695

