10

N -2.438223554 -1.445331572 -0.801797321
C -0.831935278 0.197877966 0.709112056
C 1.907561832 -0.228692823 0.425674699
C 4.110240039 -0.662951848 0.169012116
C -1.442674182 2.859332883 0.144806765
N -1.917205388 4.924989580 -0.296409552
H -2.027839366 -1.248105958 -2.659538640
H -2.112680699 -3.267557000 -0.325354582
H -1.322465018 -0.098289645 2.696292339
H 6.075221615 -1.031271602 -0.061797862

