10

N -1.895688853 -2.038938370 -0.209084798
C -0.594431815 -0.082615292 0.743449702
C 2.077941070 0.005733372 0.302267249
C 4.323036259 -0.033374699 0.057077250
C -1.385065277 2.985634656 -1.678185817
N -2.524632264 3.509412200 0.157978496
H -1.424653962 -2.644644291 -1.950255772
H -3.747611743 -2.130073304 0.209882262
H -1.177651016 0.527744873 2.600769140
H 6.320744301 -0.041047856 -0.187291437

