14

C -3.257836570 0.563281834 0.502534679
C -1.063961256 -1.300150528 0.431687486
C 1.369346327 0.009467547 -0.293936127
C 2.850429967 1.344062906 1.676694199
O 3.666036726 -1.475982174 0.112844353
C 1.376973885 0.906738537 -2.909910514
N 1.298990274 1.709567100 -4.922157864
H -2.866361020 2.087130052 1.835649741
H -4.984266944 -0.384712807 1.102923573
H -3.599283077 1.390892436 -1.355523925
H -0.775129336 -2.099261584 2.316116009
H -1.451053738 -2.840124176 -0.891206670
H 4.174228887 2.599709722 0.687730939
H 3.316215539 -2.683825476 1.432972782

