14

C -3.258572883 0.576018702 0.536336740
C -1.168623964 -1.391658814 0.324999823
C 1.333857119 -0.206359453 -0.377095963
C 2.924089394 1.037720028 1.567487229
O 3.526165435 -1.783136954 -0.050869292
C 1.375562600 0.876233406 -2.918991045
N 1.297376051 1.770118631 -4.891342534
H -2.788120330 1.993067687 1.959584405
H -5.030400677 -0.315017024 1.090805118
H -3.570515190 1.540956967 -1.260042262
H -0.889898318 -2.343265478 2.134445053
H -1.644746622 -2.828821573 -1.079946034
H 4.240648640 2.373188422 0.698752124
H 3.707508372 -1.472251155 1.992297227

