15

C -3.457865989 -0.762505455 0.878657944
C -1.574998418 1.224375326 -0.016514827
C 0.671150765 0.079319648 -1.360476311
C 3.226922598 1.499269136 -1.424381123
C 2.878180028 -0.789459337 0.069117394
N 3.920594041 -2.287440663 1.580414656
H -2.577262610 -2.065131675 2.215681790
H -5.074495225 0.108614976 1.816483817
H -4.174346088 -1.875990291 -0.705180443
H -0.898865447 2.319341658 1.601891772
H -2.508585352 2.565266629 -1.283577630
H 2.687833302 -3.674544746 2.103127812
H 0.223161084 -0.977364443 -3.065067253
H 3.325970400 3.293201094 -0.437130483
H 4.338787787 1.400758488 -3.141105731

