11

O 1.834910914 -2.042160032 -1.029181754
C 0.783183292 -0.345052746 0.730001391
H 0.322648531 -1.315653595 2.502743680
C 2.046391979 2.200638285 1.114146732
H 3.876764282 2.745408721 1.851127826
C 0.042166215 3.485891705 0.308167692
H -0.392494359 5.483232932 0.197488191
C -1.483310626 1.163874043 -0.361856097
H -1.724198607 0.834090227 -2.381771822
H -3.294322420 0.915132965 0.596660520
H 3.264035760 -2.859680101 -0.273845107

