12

O -1.803566840 5.384738441 -0.335625545
C -1.150568595 3.443510836 0.255512874
C -2.066093187 -0.932252240 0.876344843
C -0.257905437 -2.469476317 -0.491809501
N 1.980151731 -1.483322720 0.778206811
C 2.986074622 0.595437319 -0.182691824
O 2.093752050 2.014399577 -1.838818396
H -2.114560504 -1.088107099 2.914288556
H -3.622777947 0.028094237 -0.024484388
H -0.330270742 -2.155139652 -2.529546742
H -0.456433639 -4.484572467 -0.075862885
H 4.788513768 1.100100775 0.723555705

