10

O 3.620801162 -0.245339779 1.133060660
C 1.316789339 0.035697890 0.079569696
N 0.102453165 -2.105817157 -1.399764473
C -2.053317901 -1.345828477 -0.618682198
C -1.207333398 0.926258066 0.907309196
N 0.490973826 2.424794367 -0.756639367
H 3.743764601 -1.929160287 1.801306916
H -3.880925194 -2.143529496 -1.108342986
H -1.934430695 1.757627371 2.621469994
H -0.058483528 2.468890540 -2.593995531

