10

O 3.254332716 -0.487710931 1.383485749
C 1.428367992 0.071947089 -0.204648854
N 0.286355018 -1.902098804 -1.688241125
C -1.830089373 -1.288334939 -0.510376136
C -1.576344545 1.152161861 0.618000120
N 0.635797901 2.497509630 -0.546671255
H 3.443569984 -2.302705209 1.348401963
H -3.440792030 -2.556289561 -0.324000309
H -2.371210124 1.889546053 2.339434493
H 0.256304915 2.874281335 -2.397239514

