14

O 3.016153582 -0.430150496 0.112304685
C 1.623371155 1.083048038 2.523229067
C -0.733055339 1.735337125 1.035915585
C -1.483077320 -0.755675588 -0.253450370
O -2.550103939 -0.444601969 -2.694449838
C 1.012763341 -2.178054055 -0.567162557
H 3.260931772 0.714938233 -1.294587079
H 2.903763557 2.709486880 2.665326210
H -0.516183680 3.171680120 -0.469460409
H -2.204395420 2.396549802 2.323021201
H -2.751612768 -1.859225813 0.948992492
H -4.034596513 0.584112852 -2.548797118
H 1.302069545 -2.814775106 -2.503910264
H 1.212952253 -3.726439422 0.761799888

