14

O 3.397411818 0.034285339 -0.213329595
C 1.763335478 0.762120215 1.957922655
C -0.696717890 1.703385976 0.862932663
C -1.670829907 -0.776489750 -0.234840083
O -2.757382272 -0.699974285 -2.674450337
C 0.730692520 -2.308922880 -0.331161143
H 3.578750466 1.401348366 -1.448920256
H 2.784525296 2.116300772 3.136517136
H -0.485915067 3.174485135 -0.619652176
H -1.948676112 2.455081990 2.319101361
H -2.955213391 -1.694466223 1.113904450
H -4.087934789 0.528732727 -2.677240933
H 1.328073574 -2.826009868 -2.230926740
H 1.039983183 -3.762794294 1.063261906

