8

O 1.241119528 -2.512157766 -0.098733428
C 2.031789725 -0.120798418 -0.140592638
C 0.047034584 1.474824603 0.004740718
C -2.045243687 -0.194986345 0.139910579
N -1.344855571 -2.549803869 0.079375603
H 4.045691171 0.153423463 -0.279611965
H 0.057869121 3.507841970 0.014606411
H -4.033404871 0.241656344 0.280304739

