19

C -5.255245431 0.464278421 -0.587349386
C -2.646211007 0.937203983 0.530270927
C -0.869025764 -1.320642037 0.260423063
C 1.705254840 -0.825097266 1.336922198
C 4.131986176 -2.099664587 0.673314369
C 3.572078504 0.526171374 -0.092640819
O 3.680987862 1.545999248 -2.447332204
H -5.142079957 0.045558368 -2.606988532
H -6.164138615 -1.147888869 0.328376650
H -6.491412308 2.098663675 -0.351729187
H -2.799892398 1.416940742 2.533895437
H -1.806925922 2.604633668 -0.378393203
H -0.803993901 -1.884950106 -1.751415407
H -1.701540753 -2.930895224 1.253899065
H 3.525703926 1.993852850 1.800886282
H 4.289440500 -3.280798028 -1.014782324
H 5.516914598 -2.567728470 2.122882235
H 5.121719027 2.240373519 1.178812309
H 2.020746355 2.136921350 -2.897880763

