12

O 4.483577828 -0.734625929 2.864000960
C 2.474520431 -0.416153862 1.920504472
C 0.780826274 -1.484858822 -0.121598604
H 1.074755995 -2.849809816 -1.627486884
C -1.541504288 -1.235047743 1.676092170
H -2.220302227 -2.622143663 3.041993942
C -2.894819464 0.236718641 -0.376738181
H -3.594631327 -0.792809821 -2.021430927
H -4.236489618 1.697802043 0.188776232
N -0.216908887 1.199841371 -0.684363466
C 0.101104524 1.152158913 2.215181164
H -0.379436805 2.782477381 3.367835998

