14

O 4.645166041 -0.379745964 0.933984514
C 2.514201750 0.182922749 -0.174108745
C 0.306416445 -1.465961806 -0.979795198
C -1.022803021 -0.935592595 1.590264608
C -3.365939601 -0.173331179 0.121777240
N -1.311099695 0.861676090 -1.582418522
C 0.208455764 1.607416783 0.769228099
H 4.525617167 0.917428510 -1.356558682
H 3.117462083 1.479698396 -2.406426342
H 0.221510427 -3.172297286 -2.122192277
H -0.782102992 -1.940150518 3.369862748
H -4.490502276 -1.661947797 -0.758292367
H -4.584290404 1.287263673 0.920295413
H 0.011454896 3.454413082 1.647713567

