12

C -2.863370623 -1.508044609 0.719740367
C 1.431295725 -0.167939413 -1.181431337
C -0.227854824 1.990473037 -0.831101247
O -0.670667751 0.040734596 1.099026731
C 3.917919966 -0.138937389 -0.070531665
O 5.705359675 0.915049722 -1.049570198
H -2.561901613 -3.223463057 1.809575281
H -4.506677330 -0.482783243 1.423219263
H -3.050799008 -1.968021919 -1.278408397
H 0.410879693 3.732479573 0.059050653
H -1.850746649 2.244088909 -2.070019508
H 4.150066792 -1.320615468 1.649847937

