17

C -3.767029738 -0.031298419 -0.139205598
C -0.960409404 -0.183053461 -0.743941712
C 0.549270233 1.954998966 0.449771220
C 3.033756191 -2.902290194 0.447056988
C 3.290228744 1.684556424 -0.272976816
O 4.318826610 -0.827565211 0.256832885
C 0.211182412 -2.662929244 0.146126247
H -4.079627477 -0.099008610 1.902669218
H -4.594233085 1.722009114 -0.849746854
H -4.796454076 -1.607908339 -0.983941219
H -0.726507306 -0.048692441 -2.799075299
H -0.130549726 3.805472606 -0.170060233
H 0.351077855 1.890218209 2.509742035
H 3.576989846 2.003136810 -2.291862584
H 4.519349985 2.961467119 0.772136784
H -0.475564206 -3.156423095 2.047707059
H -0.371389935 -4.271229001 -1.014179388

