17

C -3.883900757 -0.229645301 0.573913358
C -1.435030731 -0.061581847 -0.909895702
C 0.408743282 1.920153040 0.213246258
C 1.682385771 -1.022144489 1.547087276
C 3.829940875 0.912568153 -0.039805588
O 4.356883880 -1.052422324 1.553495640
C 0.297530538 -2.378871622 -0.572874519
H -3.476978339 -0.609913661 2.561663167
H -4.962978669 1.525480923 0.448718227
H -5.069653841 -1.758391028 -0.143778206
H -1.831094650 0.344619394 -2.893365962
H 0.926232933 3.298195149 -1.248103162
H -0.233661120 2.972758667 1.857641145
H 4.006762510 0.500390350 -2.044595058
H 4.619827819 2.701302344 0.584204315
H -0.656961379 -4.073363829 0.112373906
H 1.380999625 -2.871728976 -2.270936645

