16

C 3.999543927 -0.333730150 -0.644223396
C 1.348420615 -0.595797558 0.482776629
O 0.858500084 1.043642618 2.410836434
C -0.593852406 0.186082900 -1.471235843
C -3.766110424 -0.406811491 1.093645717
O -0.731879665 2.612660544 -1.782970620
H 4.347177226 1.600759051 -1.265233019
H 4.297468680 -1.621326603 -2.230524720
H 5.361702245 -0.786192359 0.830210563
H 1.029524210 -2.597049063 0.965507356
H -1.681635852 0.420541107 1.958293080
H -1.162794726 -0.916981136 -3.109117940
H -4.067500991 -1.921806493 2.463663217
H -4.960306067 1.225791373 1.508832870
H -4.430143951 -1.135165456 -0.717806232
H -0.029624896 3.228026481 -0.134613337

