11

C -3.339163637 -0.992925922 0.003371460
C -0.657558797 -0.141907642 0.022187142
N 1.209105866 -1.752340900 0.313172122
N 3.307582496 -0.395899097 0.399310639
N 2.663085278 2.073247406 -0.119158174
C 0.205193303 2.449652826 -0.249723679
H -4.338292188 -0.264599074 1.654109119
H -4.301510898 -0.262624499 -1.666407608
H -3.451494853 -3.048302509 0.011699635
H 4.907292900 -1.148500970 -0.314618972
H 4.029727539 3.395946392 -0.063533934

