11

C -3.249187710 -0.806154255 -0.019254117
C -0.524527331 -0.116304744 0.105765420
N 1.274951446 -1.827915526 -0.028139742
N 3.412911691 -0.571394712 0.029576047
N 3.101767680 1.917004321 0.477690034
C 0.520644718 2.366521903 0.494800503
H -4.227062624 -0.199690629 1.690187562
H -4.153861664 0.139171734 -1.613139630
H -3.474234646 -2.840134966 -0.236769418
H 5.098271079 -1.438604733 0.161490722
H 2.363026249 3.322100506 -1.063609559

