11

N -3.447718085 -0.630438430 -0.502948586
C -0.888758360 -0.047874435 -0.151053614
C 1.169183720 -1.616828904 -0.368800859
N 3.232879222 -0.139749007 0.007156582
N 2.662361268 2.256197027 0.452207059
C 0.164531046 2.348781418 0.356454258
H -4.604311523 0.460209803 0.544563568
H -3.850900545 -2.466637325 -0.200530253
H 1.318965283 -3.609707392 -0.763266013
H 5.050508100 -0.673522239 -0.019659501
H -0.806740126 4.119569522 0.645877398

