13

O -0.008048986 0.828313599 2.789343550
C 0.940452139 1.942479473 0.636941110
C 2.907210247 0.199414483 -0.508406304
O 1.074148108 -1.792732303 -1.317672087
C -1.462264538 -0.719138262 -0.909529738
C -2.017343185 -0.778759084 1.898007415
C -0.775363152 2.032664914 -1.293101188
H 4.201867284 -0.657056300 0.840456998
H 3.900061657 0.966514902 -2.136346665
H -2.776697484 -1.681727126 -2.159839325
H -1.752594312 -2.632742248 2.752255653
H -3.889410083 -0.027157538 2.353663469
H -0.178252139 2.638799746 -3.151858859

