13

O 0.474516107 1.238759430 2.966681667
C 1.080566317 1.769238491 0.754440822
C 2.994495525 0.036573967 -0.548913604
O 1.152005108 -1.916337323 -1.189838483
C -1.346503676 -0.741640309 -0.933703549
C -2.403298978 -0.917450941 1.644995329
C -0.895224965 2.030362850 -1.057250139
H 4.385745440 -0.780378409 0.725994945
H 3.872932031 0.821448640 -2.236668767
H -2.634371249 -1.505280374 -2.352658456
H -1.596681306 -2.138296220 3.070398680
H -4.362236057 -0.368321114 1.881069724
H -0.558178742 2.790197498 -2.930636029

