8

N -2.679461135 -0.056298456 0.672738192
C -0.310661715 0.296091719 -0.032844442
O 0.363077087 2.376656485 -0.973938275
C 3.139768088 -0.891745015 -0.429324535
O 4.037420425 -2.808637427 0.071404039
H -4.003354824 1.303834039 0.477072982
H -3.199470641 -1.719193119 1.417791535
H 2.511763947 1.593715721 -1.205233269

