12

C 2.845266310 0.368962355 -0.282603307
N 1.222026018 -1.537312952 0.146943176
C -2.484010012 -0.564706007 0.261347460
N -3.728464982 -2.187723065 1.343978738
C -2.299285636 1.681410124 -1.038586429
O -0.741808267 3.399478668 -0.319961606
H 3.624903398 0.483201912 -2.185794127
H 4.071678836 1.007029137 1.244688899
H 1.286927358 2.436325098 -0.310182821
H 1.120678494 -1.801967111 2.052241967
H -2.787510875 -3.853297152 1.573346948
H -2.910018474 1.611009719 -3.014721736

