12

C -3.171046741 1.362443838 -2.163270009
C -1.046026565 1.945698716 -0.387386580
C 1.182717712 0.852942626 -0.498468631
C 2.938617873 -0.984158405 -1.507162503
H 3.953142609 -0.636835909 -3.252267793
H 2.631451074 -2.961322951 -1.052698280
N 3.586695687 0.787415522 0.583043948
H 3.636434469 -0.058540144 2.300001086
H -1.361222337 3.359130256 1.066697674
H -4.812745518 0.618159027 -1.154010032
H -3.794198557 3.059510456 -3.162501380
H -2.600564615 -0.034490110 -3.567196756

