12

C -2.080801209 -1.046686306 1.020235828
C -0.182561981 0.767073414 -0.100840151
C 2.514349962 -0.165200538 -0.185707336
O -0.537345400 3.208505761 0.333811276
H -3.992305784 -0.350665365 0.721756743
H -1.886408351 -2.963906509 0.289714196
H -1.717622795 -1.057637949 3.054533088
H -0.825095528 0.476405474 -2.762647691
H 2.674047277 -2.090731058 -0.903478287
H 3.677254273 1.115299465 -1.297032442
H 3.191714657 -0.112749262 1.765507737
H -0.950466308 2.157661718 -2.013868413

