14

O 2.439219440 2.581081293 -1.548117536
C 3.222846912 0.848773229 -0.178901676
C 1.729955998 -0.724481954 1.361432947
C -0.610286409 -2.127950234 0.522723209
C -2.029588459 -0.371817977 -1.255756741
C -1.544033951 2.072478363 0.018143317
H 5.285739450 0.537023296 -0.140821503
H 2.771829833 -1.639912589 2.882140328
H -0.219864495 -4.011022577 -0.245384452
H -1.804602070 -2.403986233 2.192995174
H -1.223522417 -0.359351265 -3.149901669
H -4.048686330 -0.804247332 -1.421561406
H -1.539271804 3.836733949 -1.001371826
H -1.985126624 2.189951789 2.014414185

