12

C -1.952757562 -1.320939046 -0.199111106
C 0.786847887 0.226878043 -0.925305531
C 1.312414945 2.861516745 -0.139848180
O 2.964870704 4.060864538 -1.125726293
C 0.529060878 -1.735397294 1.427913966
O 0.604600035 -0.961629827 3.649801844
H -2.473547260 -2.760728013 -1.551817809
H -3.382890690 -0.427340719 0.957239635
H -1.598347042 0.465299686 -1.669795074
H 1.600922078 -0.463274844 -2.668818802
H 0.205059851 3.563909294 1.478857146
H 1.440368282 -3.498872801 0.804380161

