10

O -3.596051305 0.029458185 1.129685931
C -1.434966594 -0.366497566 -0.300033404
C 0.708666421 1.467860830 -0.058405935
C 2.758990996 0.076320879 0.286605275
N 2.095809130 -2.569685338 0.413109834
N -0.215786295 -2.845623317 0.169344311
H -3.157872874 -0.058858222 2.889213667
H 0.544310722 3.490909230 -0.241614581
H 4.719892200 0.600582439 0.484366512
H -2.039098298 -0.458855701 -2.282759641

