8

C -1.840918354 0.362643621 -0.708977016
C 0.252932377 1.816483307 -0.357860346
C 2.583314137 1.973445263 0.134184577
C 3.141304625 -0.501280166 0.424938481
N 2.592480613 -2.670324838 0.455427020
H -3.265125717 0.317370243 0.766912863
H 0.260290990 -1.917284001 -0.100120147
H -2.539586706 0.087687865 -2.618246273

