14

C -1.739607094 2.118148225 -0.090798525
C -0.037086121 -0.002915677 0.083855293
C 2.143717051 0.087832089 1.905821659
O 1.349488858 0.362226691 -2.833936041
C -1.304795153 -2.523330942 -0.148921133
O -1.660408653 -3.630983781 -2.102278910
H -0.101333464 1.940003951 -2.513950927
H -3.709207520 1.712315008 -0.496566036
H -1.415831095 3.673631120 1.202769048
H 3.596357365 -1.295613805 1.444205805
H 1.443544250 -0.279576231 3.812442351
H 2.981734715 1.967794717 1.882137457
H 0.567057734 -0.935995107 -3.876476495
H -2.012681722 -3.273131522 1.670618617

