14

O 3.185611030 3.478719665 -0.995356884
N 3.265157143 0.984815803 0.087551427
C 0.967360346 -0.043127632 -0.247347065
C -0.135040339 -2.643174444 -0.428600902
C -2.805759468 -1.407301060 -0.244148666
C -1.510258310 1.151803871 0.238382677
O -0.509488210 1.055627450 2.724284437
H 4.914591967 4.002345597 -0.844518114
H 0.439499028 -3.983556201 1.019820202
H 0.267168440 -3.436990431 -2.292062101
H -3.982804846 -2.026327434 1.323027892
H -3.850424315 -1.508440431 -2.015451739
H -2.200122277 2.965269058 -0.430715468
H 1.973656496 1.337848202 2.120662222

