13

O -3.475996230 3.293811702 -0.119309257
C -2.615581853 1.325290990 0.600482869
C -2.036654164 -0.869165490 -1.130935210
C 0.620306134 -1.920740253 -0.852518817
O 2.466450356 -0.232519764 -1.897996492
C 3.425082284 1.513279849 -0.355628296
O 2.890185704 1.792612778 1.822996286
H 1.080578544 -2.304879755 1.120782751
H -2.229308832 0.995493001 2.631560395
H -3.360142148 -2.384980766 -0.638157205
H -2.403986800 -0.306279025 -3.079727030
H 0.816915224 -3.653099019 -1.943190369
H 4.800907499 2.665200789 -1.394968386

