12

O -2.469547352 2.071074977 1.038244994
C -2.287734799 -0.575995269 0.876635634
C 0.388001081 -1.599019369 0.875943258
O 1.490470628 -1.719028071 -1.649519125
C 2.646581809 0.125556919 -2.772323089
O 2.526798476 2.217029373 -1.342783410
H -1.242024858 2.805807260 -0.078797932
H -3.278263811 -1.311786667 -0.791316919
H -3.245194378 -1.320989445 2.546988366
H 0.384207683 -3.569144667 1.468785889
H 1.606457747 -0.503948346 2.123971303
H 3.442077195 3.500913384 -2.242848587

