12

O -2.434427567 2.035949012 1.410766761
C -2.259923586 -0.541088248 0.812947064
C 0.401335008 -1.616063187 0.905876897
O 1.712612734 -1.599098416 -1.533314310
C 2.622291987 0.484065857 -2.422475729
O 2.232242065 2.598357831 -1.246738231
H -1.149099654 2.929194281 0.480524000
H -3.087918180 -0.970513052 -1.041818220
H -3.385244173 -1.534530141 2.229953304
H 0.359417670 -3.619973499 1.361641346
H 1.546074289 -0.614089880 2.296453806
H 3.404470701 2.568259483 -3.200838198

