9

O -1.262842780 4.569924857 -0.541926644
C -1.189426032 2.372051147 -0.322678408
C -3.529600825 0.432716952 -0.634382194
H -4.986493060 0.891010157 0.749009995
H -4.315818355 0.602949264 -2.531469898
C -2.058504141 -1.814157054 -0.131170841
C 0.208161137 -1.936733308 0.353890070
C 1.310634520 0.646655606 0.360689984
O 3.332310469 1.504729217 0.714450117

