11

O -1.206581268 4.502681844 -0.270392766
C -0.806929269 2.300308148 -0.170809340
C -2.669086859 0.080925858 -0.423480047
C -1.124593648 -2.329213002 -0.125669301
C 1.134383450 -1.508487466 0.208161383
C 1.921682848 1.094236369 0.278201946
O 3.881890296 2.165254165 0.563480067
H -4.154505947 0.206184465 1.004639219
H -3.625962854 0.133898189 -2.252117959
H 3.446585080 -3.330148736 -0.146867625
H 3.219643807 -3.288835959 1.337993295

