8

C 4.439717077 -0.809168160 -0.404933821
H 6.112454889 -1.966229117 -0.516216051
C 3.917622693 1.722344616 -0.063835232
C 1.104365396 1.153949920 0.213752043
N -0.859816410 1.975291638 1.231745484
H -0.497964207 3.617932841 2.164899520
C 1.962150143 -0.927425747 -1.339957873
H 1.338055996 -1.454715234 -3.227453119

