12

O -1.835933464 -0.247333856 1.315286743
C -0.333220623 1.270771523 -0.116447154
C -0.854711769 3.660929382 -0.624695325
C -0.792844498 -2.713135620 1.248321104
O 1.767316488 -2.428103768 0.700601278
C 1.901686674 -0.307449464 -0.923924217
H 0.447994972 4.775550114 -1.733190642
H -2.570257963 4.534473425 0.056766787
H -1.765805010 -3.813830808 -0.222421313
H -1.008954995 -3.598209939 3.094255509
H 1.723665232 -0.882384087 -2.909079677
H 3.707657547 0.637208053 -0.648414110

