12

O 0.211078874 1.704646556 3.044141162
C 0.324858566 1.710292982 0.670215880
C -1.488277336 2.477774690 -1.028169257
C -1.047000114 -2.756510825 0.566127138
O 1.098192057 -2.609421308 -0.449189506
C 2.319575380 -0.051937157 -0.407304577
H -1.130006012 2.449617469 -3.042069134
H -3.171169649 3.424938513 -0.354287989
H -1.757116994 -1.320327889 1.859769865
H -1.962578789 -4.580804369 0.320395902
H 2.853311554 0.222787863 -2.373384915
H 3.956596045 -0.253224812 0.817187780

