15

C -1.255457730 -3.110828577 0.523328281
C -0.434527291 1.021138966 -0.777802580
C -2.503559077 2.202839759 0.698245885
C 2.135277666 1.427246571 0.140428799
O 2.742452056 3.615916484 0.569184299
N 3.841507170 -0.516147851 0.298095528
H -0.409603448 -2.651493812 2.330417079
H -0.402344291 -4.804483106 -0.280872847
H -3.296145363 -3.297705521 0.665973539
H -0.934141078 -1.603159532 -1.084310526
H -2.191856917 4.224411490 0.382740594
H -4.367257324 1.743509888 -0.045461576
H -2.448959599 1.913038447 2.748001785
H 3.520521182 -2.110385532 -0.679403804
H 5.655210935 0.048989222 0.400795377

