14

O -2.310591811 -2.972376980 1.025316735
C -1.289371114 -1.168754620 -0.542468542
C -1.838965397 1.980069943 0.300560033
N -0.488755099 2.946827958 -1.613954725
C 1.429364595 -1.414044945 -0.733460648
C 3.488713822 0.009484044 0.324781069
O 3.441382154 1.968494350 1.561472722
H -3.971948709 -3.445138514 0.463048512
H -2.285662506 -1.057317735 -2.332913237
H -1.112080127 2.135752536 2.225851238
H -3.886580445 2.109190659 0.115505144
H 1.254699213 3.413320553 -0.934203533
H 1.991449024 -3.361666760 -1.101307044
H 5.331485827 -0.918980107 -0.003625251

