12

N 2.664129069 1.716800424 2.628698820
C 0.554223583 -0.757990729 -2.113576335
C -2.058260272 -1.661691210 -2.789136644
O -2.947565821 -0.604153001 -0.371405091
C -0.497024370 0.132743982 0.004413399
N 0.082455951 1.468757316 2.139167592
H 3.016402043 3.441660813 3.357664981
H 3.309926947 0.351660212 3.801893862
H 2.392202997 -0.772232140 -2.969126651
H -3.030960379 -0.724079972 -4.347524067
H -2.399634459 -3.695391089 -2.827350761
H -1.066695652 1.081346377 3.615504146

