9

C -1.811200766 -0.000319950 -0.070534198
C 0.956798459 0.116907548 0.571579187
O 2.139675683 -1.968245436 1.262942671
H -2.785296210 -0.308063947 1.725249541
H -2.500147555 1.750500533 -0.913331980
H -2.203535424 -1.604656630 -1.296377236
H 1.518207140 1.907291904 1.482470359
H 1.997047526 0.798580251 -1.842988039
H 2.669100333 -0.681604522 -0.980651300

