11

O -1.489009360 -2.429113808 1.612876882
C -2.528459866 -1.058605205 -0.412019784
C -0.864566029 1.180393934 -1.099499521
N 1.684395703 0.262707874 -1.631041629
H 1.794980888 -0.511089885 -3.374997984
H 2.979149702 1.658823551 -1.530257754
H -0.755794433 2.443650318 0.529659865
H -1.722536801 2.237917498 -2.665104167
H -4.401949181 -0.410088729 0.161567067
H -2.772507999 -2.277703962 -2.080921924
H 0.307098145 -2.467539272 1.296796491

