13

O -2.349440177 -1.245625976 2.570499848
C -2.430894081 -1.096894685 -0.069649352
C -0.817707228 1.029169886 -1.153424935
N 1.891518322 0.456733576 -1.153222092
C 3.771326257 0.360713342 1.260593344
O 2.865607397 0.140532148 3.294217427
H -0.620802338 -1.058112743 3.137444689
H -4.400369823 -0.746021261 -0.581157302
H -1.873900519 -2.894740398 -0.955502674
H -1.093539608 2.724976568 -0.008448285
H -1.403105093 1.463248179 -3.085681311
H 2.481280737 -0.809542023 -2.470706094
H 3.980026155 1.675563387 -0.784961392

