14

O 0.342732049 4.214991356 1.233583961
C -0.397018741 2.591889110 -0.335434192
C -1.957971032 0.315541801 0.115757045
C -0.438366988 -2.115592862 -0.339494722
C 1.884098936 -2.320122833 1.345831425
C 1.074546651 3.730041259 -2.132953851
H -2.649481839 0.401755491 2.058532676
H -3.582252279 0.378290346 -1.159759580
H -1.704836719 -3.712047381 -0.010619354
H 0.122658003 -2.201917327 -2.325046420
H 2.835377656 -4.127228129 1.067608843
H 1.374077445 -2.173143753 3.340874765
H 3.241554785 -0.823063788 0.929433108
H 0.214561224 5.301286454 -3.151060260

