13

C 0.480370611 -2.379706503 -0.221682619
C 2.208874279 -0.133956298 -0.545623988
C 1.539969094 2.211194957 -0.228081893
C 0.863404244 4.549296626 0.097677354
N -4.184868498 -2.180727602 0.194107074
C -1.992124657 -1.746240524 1.023052805
H 1.452022090 -3.787544359 0.946457216
H 0.138442999 -3.273430061 -2.055926819
H 4.146290344 -0.526655994 -1.099311588
H 0.102632802 5.651795048 -1.451548279
H 1.033146815 5.457075192 1.925797066
H -4.108337954 -3.033317643 -1.535003442
H -1.844029939 -0.816110862 2.862120380

