15

C -2.156595875 2.936113684 0.499755440
C -0.573050169 0.651019796 0.011259839
C -0.664609818 -1.378980018 2.035772833
O 1.643434226 -1.701738211 3.301524582
C 0.822780027 0.456664922 -2.096803920
C 2.389416407 -1.709553721 -2.798454165
O 3.013847568 -3.440253364 -1.429009932
H -1.541145770 3.825673136 2.260861400
H -2.046428829 4.316643939 -1.022975402
H -4.132899556 2.394571032 0.769809454
H -1.310700075 -3.151876603 1.173049703
H -2.052119456 -0.842326315 3.464266208
H 0.764426173 1.973010191 -3.477307926
H 3.031045814 -1.712677155 -4.788827311
H 2.736099420 -2.557696537 2.113147518

