11

O -2.084894469 -0.795217654 -0.730774478
C -2.115660514 0.488479369 1.558885063
N -0.356382713 2.235799720 1.883275053
C 1.682737184 2.824022575 0.563655074
C -0.567266454 -2.735188327 -0.862580418
C 0.803374694 -4.515108041 -1.093856931
H -3.875010710 0.554336891 2.572862761
H -0.619459858 3.245080125 3.485498680
H 2.112141277 1.780934894 -1.128728028
H 2.906155685 4.267498549 1.304964265
H 2.012602391 -6.105514548 -1.290954799

