12

O 0.022636047 -2.473158751 -2.197881024
C 0.070605346 -0.818770180 -0.202676793
C -2.728463302 0.582937688 1.396426707
C -1.080597781 1.796552611 -0.443596767
O 1.124714250 3.014746378 0.547997654
C 2.399929445 0.639691304 0.719292237
H 0.220374002 -4.171294728 -1.594368489
H -4.185837569 -0.379084427 0.261635246
H -1.006442736 -1.506844293 1.680364841
H -1.733408395 2.498017456 -2.256299620
H 3.061742657 0.227933493 2.629454370
H 3.944061133 0.488460339 -0.644861576

