15

C 3.915820442 0.708517813 1.295691379
C 1.580205218 0.263222522 0.542347826
C -0.106765539 -1.992102926 0.444604426
H 0.422137547 -3.897819724 -0.063982479
C -2.436928034 -1.422603250 1.964268299
H -2.300476617 -0.235328766 3.631336460
H -3.755344730 -2.974934686 2.162768873
C -2.236310910 -0.353220672 -0.633343109
H -3.581099754 -0.828885827 -2.095598425
C -0.447631276 1.914001282 -0.693365932
O -1.163116528 4.218984348 0.390328014
H -1.517743042 3.948205170 2.148373128
H 0.093972074 2.346029297 -2.636683933
H 5.105618447 -0.779908982 2.045870755
H 4.711337447 2.591778334 1.172680186

