17

C 4.211417809 0.094648029 0.020185922
C 1.420905104 -0.302116109 0.023188678
C 0.126199841 -2.203628682 1.031713722
C -2.684826729 -1.944401457 0.699452891
C -2.915902893 0.294095507 -1.143916249
C -0.354662306 1.661838061 -1.058610818
O -0.352742382 3.893667693 0.446357374
H 4.684463331 1.919408544 0.861767288
H 4.942305368 0.118127139 -1.912650732
H 5.192332688 -1.387164800 1.062727964
H 0.978630163 -3.783537724 2.021521577
H -3.616524881 -1.586771468 2.512923351
H -3.541882854 -3.662731671 -0.058244553
H -3.242154130 -0.415219033 -3.053418697
H -4.452715577 1.591619655 -0.696836357
H 0.230128693 2.314133535 -2.927749699
H -0.624971244 3.398032801 2.171588357

