17

C 3.845625186 0.083676033 -0.400158993
C 1.519529797 0.342302968 0.753370254
C 0.169068146 -1.690216607 1.673174509
C -2.642520315 -1.499012436 1.291641261
C -2.023457639 -0.311910201 -1.203809663
C -0.455618128 1.990963818 -0.565128078
O -1.662206614 3.882970294 0.880894699
H 5.031421148 -1.533604553 0.027373798
H 4.781439956 1.701176792 -1.235455092
H 2.099080983 -1.028932045 -2.909446341
H 1.066763134 -3.455856833 2.209162273
H -3.726352495 -0.343128797 2.623712343
H -3.540583951 -3.345070467 1.147366038
H 0.451984789 -1.377560607 -2.993958899
H -3.226166556 -0.519656467 -2.849521160
H 0.308285479 2.923364911 -2.232454640
H -1.616595920 3.407193664 2.627885595

