14

C 2.748374609 -0.703891782 -1.331933586
C -3.279101942 -2.173385713 0.908325038
C -3.255447333 -0.086385164 -0.692619774
C -1.153602834 -1.550769332 2.391780190
N -0.223146703 0.876506207 2.239710508
C 1.432874365 1.363164787 0.085594521
C -1.417566090 1.867898824 0.002328955
H 3.385741833 0.027895003 -3.150327802
H 4.412499087 -1.333085393 -0.288703929
H 1.519780658 -2.324485550 -1.658528659
H -4.514174762 0.186292735 -2.293232976
H -0.035726633 -2.869352967 3.504065692
H 2.539481222 3.077886644 0.314617951
H -1.959757636 3.845403370 -0.019170875

