14

C -3.489290680 0.518482985 0.988317447
N -0.926042108 -0.284611784 0.838162096
C 0.477609400 -2.320636423 1.149037274
C 2.525760468 -2.167661903 -0.577757798
C 2.309909771 0.018684384 -1.955543528
C 0.181734262 1.411703423 -0.955891504
O 0.695782589 3.849267123 -0.046939625
H -4.342696043 0.490206125 2.857302580
H -4.639996677 -0.350821268 -0.472393926
H -2.228403578 1.975500151 -1.337910204
H -0.146308020 -3.922326240 2.248268889
H 3.929706849 -3.629517240 -0.819040675
H 3.583027539 0.697024309 -3.396102578
H 2.274016634 3.776381369 0.850179034

