17

C -3.641417526 0.070891583 0.038879376
C -1.946727634 -0.225079553 -2.232264383
N -0.038667425 1.676990584 -2.884185219
C 0.775920715 -0.858100974 -2.182998637
C 2.403407694 -1.394466305 0.111294192
C 2.769117509 2.214220730 3.118071897
N 1.810763748 0.073742310 2.373760366
H -5.362662888 1.064941041 -0.510990316
H -2.767931063 1.164692937 1.548037922
H -4.206227052 -1.767551324 0.791475656
H -2.954117463 -0.899361953 -3.890228713
H 0.191488991 2.875019140 -1.400299171
H 1.472063638 -1.931246431 -3.791924971
H 2.281060815 -3.405424313 0.570432955
H 4.241169241 2.715173897 1.711074932
H 4.367041328 -0.982825487 -0.371474973
H 0.423491139 -0.675241096 3.455137622

