17

C -3.779475965 -0.542426514 0.050773313
C -2.094371842 -0.451063963 -2.238080374
N -0.622544798 1.796339601 -2.889671132
C 0.702574870 -0.480978970 -2.098127144
C 2.126924756 -0.772503958 0.361726291
C 4.295449999 1.353827310 2.212751127
N 1.641053379 1.011476683 2.434092991
H -5.520769526 0.506613219 -0.304294907
H -2.883210971 0.229661307 1.736307594
H -4.301683525 -2.495049225 0.466150630
H -2.911711348 -1.339202493 -3.898907998
H -0.716638023 3.108406099 -1.497904924
H 1.695259625 -1.389984952 -3.646951910
H 2.093090759 -2.705086482 1.061192184
H 5.126993423 -0.261166764 3.251205843
H 4.199421582 -0.310461442 -0.257790807
H 0.796469616 2.572902786 1.710165558

