13

O 3.039780544 3.263610477 2.079803301
C 3.514004726 1.764820708 0.447210490
C 1.763530611 -0.313856448 -0.397303787
C -0.877328691 0.017658829 0.611457303
C -2.875529121 1.049110768 -1.056617572
N -2.770062674 -1.808776437 -0.314514848
H 5.364577539 1.813790088 -0.537688347
H 2.637062351 -2.094496621 0.220730556
H 1.725034017 -0.327039291 -2.466057803
H -0.950375715 0.193908010 2.661933528
H -2.287699253 -3.013097516 -1.708513861
H -4.407337678 1.820226155 0.100490023
H -3.911892136 -2.577920027 1.005529337

