12

C 3.426957119 -0.368797817 -0.653221932
C -1.070037614 -1.682590013 1.457102732
C -0.532433378 1.154851678 1.329033158
O -2.769061970 1.529721846 -0.184390499
C -1.485125689 -0.722500255 -1.241580092
C 1.042531686 0.768449173 -1.276343115
H 0.505420461 -2.953157690 1.786734123
H 4.882321511 1.098119020 -0.957283816
H -2.800426850 -2.154958673 2.459271399
H -0.078910295 2.535448244 2.782283155
H -2.368967700 -1.647220670 -2.849568857
H 0.923032417 2.482088860 -2.422816258

