13

N -2.761261898 1.180543412 -0.110036711
C -1.859048141 -1.482126429 0.579971555
O -3.161567648 -3.288437813 0.223480750
C 0.073161673 -0.912110896 2.427185815
O 2.266404968 0.517380160 1.750896223
C 3.077670157 0.726220125 -0.601960994
N 1.816088864 0.100295173 -2.536300151
H -4.660028605 1.248224879 -0.337636006
H -1.801007905 1.825429062 -1.647686299
H 0.642332196 -2.448250006 3.657357177
H -1.807337127 1.268660207 2.084166603
H 4.962184304 1.564696425 -0.610859960
H 2.834093512 0.370993641 -4.132997916

