14

O 2.137260140 0.725209934 3.699431229
C 1.415031174 -1.468693387 2.789755529
C -1.141565902 -1.100401487 1.590489864
C -0.621982321 -0.336741901 -1.128895628
C -0.468974957 2.446235010 -1.635938967
C -0.231290591 -2.069336826 -2.899192196
H 3.807988644 0.524511023 4.393073987
H -2.246690401 0.363253946 2.551231085
H -2.155572361 -2.890165805 1.638790129
H -2.284525496 3.354094816 -1.249249469
H 0.047828269 2.826969773 -3.593008525
H 0.921617163 3.342117940 -0.399076256
H -0.327990466 -4.070288167 -2.476636716
H 0.195919794 -1.539086403 -4.831078923

