14

O 1.837153717 1.303421757 3.951914702
C 1.703611685 -0.169140768 1.781404566
C -1.005195044 -1.246511823 1.600436040
C -1.013859439 -0.538422279 -1.103255125
C 0.854304722 1.764708458 -0.781789581
C -1.136093047 -1.921293149 -3.211159825
H 3.591423744 1.671820898 4.212953381
H -2.327926439 -0.081554854 2.703163818
H -1.312451190 -3.233804300 2.038766689
H -1.496971078 1.853188969 -1.584015643
H 2.053238854 2.178946251 -2.388517427
H 0.305458770 3.390951978 0.356233292
H -1.820786119 -3.844494600 -3.120364154
H -0.573267355 -1.178746547 -5.032044587

