15

C -1.094659233 2.277957053 -0.791437011
C -1.111712575 -0.251523757 0.583769357
C -2.446562934 -2.281975027 -0.980388439
C 1.514848530 -1.128704218 1.294624496
C 3.599682433 0.063639967 0.731869158
N 5.555496248 1.074253706 0.031988452
H -0.232993839 3.760164911 0.356527012
H -3.019106713 2.864071654 -1.246185675
H -0.036592354 2.150213192 -2.560819763
H -2.175240385 -0.016164283 2.346629323
H -1.478837058 -2.556290562 -2.783532529
H -4.400482130 -1.742353225 -1.371707086
H -2.472780560 -4.093891640 0.006276461
H 1.713360990 -2.888153795 2.327452892
H 6.274969805 2.372193216 1.252646347

