15

C -1.062479541 2.380710760 -0.670340073
C -0.968207737 -0.174796926 0.658573561
C -2.225097351 -2.225420664 -0.954246063
C 1.685647306 -0.944828102 1.374874210
C 3.798818181 -0.077899292 0.146472029
N 5.671231486 0.987603905 -0.585300866
H -0.285831829 3.882280676 0.513513402
H -3.009553864 2.879855422 -1.130086893
H 0.008142716 2.346068320 -2.436770922
H -2.042791654 -0.016641325 2.420324125
H -1.247469782 -2.422680500 -2.762479619
H -4.198802923 -1.752559636 -1.337149173
H -2.179457536 -4.056093187 -0.005506813
H 2.000609849 -2.434503024 2.740463610
H 4.076634397 1.431544376 1.760234872

