14

O -1.990529842 0.006391980 -2.028803542
C -2.519053868 -1.010066872 0.823451636
C -0.103752881 -1.875139933 1.572962106
C 1.579668158 0.264130762 -1.743771313
C 2.140902266 1.565156535 0.726583349
O 1.694821246 -0.235075543 2.622268252
H -3.005217113 1.451084484 -2.581502135
H -3.309359651 0.676054434 1.713518896
H -3.916533549 -2.493498119 0.597204497
H 0.228628194 -3.843017023 2.012512818
H 2.603409371 -1.466276502 -2.110730048
H 1.560897754 1.496420998 -3.392546642
H 0.892567575 3.211768884 0.941995478
H 4.093446232 2.273969712 0.834242728

