8

O 0.717826415 1.684886313 -0.632086781
C -1.760363789 0.527895239 -0.158320234
C -1.269245833 -2.056021154 0.795665934
N 1.324573877 -2.262763598 0.825306213
C 2.254372100 -0.116235901 0.008178791
H -2.755601753 1.697170969 1.219272423
H -2.804614616 0.519805472 -1.937543414
H 4.255642691 0.289849727 -0.184672597

