10

N 3.132595066 1.244312352 3.628571526
C 1.442495830 0.171337934 1.957242826
O -0.788260986 1.324088690 0.813181296
C -0.869547498 -1.124803086 2.023507755
H -2.235482057 -1.685639936 3.421068902
C 1.255711256 -2.267065106 0.536443547
H 2.222327333 -3.862263582 1.392833166
H 1.148612520 -2.239730634 -1.513417591
H 2.267858810 2.238786451 5.008694886
H 4.448829922 2.319143577 2.761890478

