16

C 4.075427013 0.374864801 -0.409786071
C 1.299975936 -0.118065553 -0.084864142
C 0.519848860 -1.234812982 2.405477832
C -4.513111507 0.862859096 0.017025639
N -3.061464868 -0.047655113 -1.651840578
C -0.218389677 0.455802622 -2.068473183
O 0.050675425 1.263488178 -4.245500323
H 5.180002452 -1.354666235 -0.130517506
H 4.767442339 1.757762184 0.969103827
H 4.473104682 1.099267860 -2.294501794
H 1.855074406 -2.720202968 2.944453990
H -1.348476702 -2.109300074 2.384946940
H 0.551633090 0.146707697 3.953533442
H -6.546395874 0.657915652 -0.141903787
H -3.688717862 1.859302498 1.603164861
H -3.822999079 -0.823740858 -3.234861186

