16

C 3.590124859 0.892659246 -0.104379419
C 0.897983606 0.038682713 0.011569810
C 0.330591655 -1.682502896 2.210786020
C -3.639737824 1.355860561 0.032596377
N -3.018243524 -0.149661868 -1.860197132
C -0.380822616 -0.078189535 -2.371558193
O 0.488894447 0.068329832 -4.506600909
H 4.848451912 -0.697687962 -0.540829696
H 4.191827906 1.651625697 1.719861024
H 3.871710398 2.309593468 -1.571149688
H 1.715637562 -3.227776697 2.248055841
H -1.544158012 -2.528893502 2.133855742
H 0.511870720 -0.696834108 4.016646685
H -5.291944574 0.924945122 1.172186911
H -2.763225891 3.181930770 0.206698773
H -4.235326321 -1.292552166 -2.782082258

