45
Properties=species:S:1:pos:R:3 pbc="F F F"
Si       0.05152400      -0.99878400      -0.05231200
O        1.04963400       0.31357800       0.00186000
C        2.17603000       0.64978000       0.83701900
C        3.47371100       0.20657900       0.20050100
H        2.06794000       0.17768900       1.81642200
C        3.69351800       0.36295200      -1.17443500
C        4.48969100      -0.32521500       1.00285900
C        4.91526100      -0.01040200      -1.73907500
H        2.90097500       0.76114700      -1.80171700
C        5.71536200      -0.69434900       0.44075200
H        4.31501300      -0.45820200       2.06806100
C        5.93018700      -0.53743000      -0.93206600
H        5.07564200       0.10754900      -2.80766700
H        6.49607400      -1.11170200       1.07127900
H        6.87992500      -0.82966300      -1.37231600
C        2.14318600       2.18569200       1.02627000
C        0.94442400       2.64067400       1.72734400
H        3.03928200       2.47199100       1.59067600
H        2.21807800       2.66329900       0.04056800
C       -0.05744300       2.98320200       2.31203500
H       -0.93740000       3.29732100       2.82896700
Cl       0.16640600      -2.51105700      -1.51712200
Cl       0.98280000      -2.20866600       1.53310400
O       -1.40379600      -0.91775500       0.99520700
O       -0.95158800      -0.06989500      -1.36841300
C       -3.32240700      -0.01782000      -0.06763000
C       -2.60328600       1.23157800      -0.34569100
C       -0.70853800       2.24602000      -1.36861900
C       -3.26088800      -2.26371300       0.73852500
C       -4.59366700      -2.44623200       0.40878300
C       -4.66893300      -0.17474800      -0.38761300
C       -5.31254900      -1.38807300      -0.14930600
C       -3.12509900       2.48684500      -0.04819900
C       -2.42393800       3.63433000      -0.41540300
C       -1.20502400       3.50787900      -1.08192900
H       -5.18836800       0.65664700      -0.84938200
H       -6.35881100      -1.50728100      -0.40826400
H       -4.06975100       2.54629800       0.47924300
H       -2.82398400       4.61384600      -0.17820100
H       -0.62828800       4.37502100      -1.38085300
H        0.22026700       2.04401000      -1.88241600
N       -2.66698200      -1.07091600       0.50513600
N       -1.40961900       1.15044300      -1.00398100
H       -2.62907400      -3.00967600       1.20263300
H       -5.05074300      -3.40945600       0.60159900
