45
Properties=species:S:1:pos:R:3 pbc="F F F"
Si      -0.18969900      -0.24772600       0.78056600
O       -0.94628400       0.72174000      -0.31080300
C       -2.27095200       1.30318600      -0.26519900
C       -3.32842300       0.24192500      -0.46904200
H       -2.42002300       1.79058200       0.70228300
C       -3.24934600      -0.64657900      -1.55092700
C       -4.40123100       0.14452600       0.42354100
C       -4.23148000      -1.62126400      -1.73423800
H       -2.40954200      -0.58257800      -2.23768800
C       -5.38901700      -0.82792100       0.23876700
H       -4.45475900       0.82482000       1.26993400
C       -5.30491500      -1.71291400      -0.83990400
H       -4.16124200      -2.30965400      -2.57251800
H       -6.21630200      -0.89894600       0.94000600
H       -6.06846000      -2.47323500      -0.98186700
C       -2.31625600       2.37309700      -1.37861900
C       -1.38138400       3.47427500      -1.15408300
H       -3.34143200       2.76145500      -1.42412500
H       -2.11098400       1.88628100      -2.34037000
C       -0.61526200       4.38645500      -0.94237500
H        0.04800000       5.20470500      -0.76705000
Cl      -0.67707200      -2.26747000       1.18146700
Cl      -1.12333300       0.47290900       2.64377300
O        0.79125200      -0.80710200      -0.78130900
O        1.37048300       0.32997800       1.43112900
C        3.08496100      -0.94626300      -0.32828400
C        3.08723300       0.51391300      -0.17842700
C        2.05559000       2.44546500       0.77384000
C        1.81956600      -2.88872500      -0.86831000
C        2.96042600      -3.67409500      -0.79790400
C        4.24445900      -1.71138200      -0.25807100
C        4.18644500      -3.08610900      -0.48570500
C        3.99384200       1.33000800      -0.84914000
C        3.92423100       2.71586400      -0.71053800
C        2.93457100       3.27611300       0.09816400
H        5.17723100      -1.21890900      -0.01015700
H        5.08718700      -3.68643900      -0.42206000
H        4.72608500       0.86428400      -1.49777100
H        4.62717000       3.34956500      -1.23989700
H        2.83851600       4.34810200       0.22167400
H        1.27706200       2.78190200       1.44549400
N        1.89733700      -1.55847500      -0.62981200
N        2.16224600       1.10547600       0.63145600
H        0.83272600      -3.25284400      -1.11664600
H        2.87240800      -4.73676900      -0.99116300
