45
Properties=species:S:1:pos:R:3 pbc="F F F"
Si      -0.04674000      -0.98694100       0.26686600
O        1.55544400      -0.64256400      -0.05384000
C        2.34536500       0.53183800       0.09911600
C        3.75360700       0.24219500      -0.37892800
H        1.92522600       1.33374100      -0.51899200
C        4.42533100      -0.91560600       0.03629000
C        4.41440900       1.16657700      -1.19515400
C        5.74333900      -1.14446900      -0.36433600
H        3.90779100      -1.63728800       0.66183700
C        5.73631000       0.94149900      -1.59292900
H        3.89169100       2.06290100      -1.52240100
C        6.40280800      -0.21512100      -1.17784800
H        6.25659300      -2.04702000      -0.04279300
H        6.24058200       1.66376500      -2.22959000
H        7.42854000      -0.39459800      -1.48910400
C        2.38620500       1.00397600       1.58099500
C        1.07121000       1.37306200       2.09116200
H        3.07098900       1.85790100       1.64767100
H        2.80512300       0.19180500       2.18705900
C       -0.04198500       1.64793400       2.47976800
H       -1.02012600       1.88373800       2.83766600
Cl      -0.40911000      -2.50019900      -1.15660600
Cl       0.40040600      -2.03485300       2.11921300
O       -1.73241700      -0.80806000       1.00371800
O       -0.53588400       0.49195500      -0.83360500
C       -3.30397400       0.14551300      -0.47175000
C       -2.64329300       1.44414600      -0.31341400
C       -0.66132500       2.74904800      -0.38811600
C       -3.39394400      -2.16009500       0.12304800
C       -4.54702400      -2.33456500      -0.62355500
C       -4.46579500      -0.00473200      -1.22693800
C       -5.09184500      -1.24685900      -1.30836900
C       -3.38442000       2.59526000      -0.04805700
C       -2.75764100       3.83481000       0.04542200
C       -1.37700600       3.90644300      -0.13493700
H       -4.85320100       0.85738100      -1.75650100
H       -5.99129300      -1.36313900      -1.90289300
H       -4.45405500       2.49517600       0.09222600
H       -3.33850500       4.72597300       0.25554200
H       -0.84031600       4.84616800      -0.07904100
H        0.40457300       2.72356400      -0.55476100
N       -2.80937900      -0.94092000       0.18424200
N       -1.28862000       1.55080500      -0.47609600
H       -2.90239600      -2.93460000       0.69553200
H       -5.00204600      -3.31735200      -0.65793100
