45
Properties=species:S:1:pos:R:3 pbc="F F F"
Si      -0.68955500       1.23344800       0.86771800
O        0.71269100       1.75252900       0.18845200
C        1.40901600       1.44571700      -1.04254100
C        2.38322300       0.31004700      -0.81907500
H        0.69953300       1.17465200      -1.82677100
C        3.29358400       0.35343200       0.24845400
C        2.42687800      -0.76529900      -1.71341700
C        4.24434100      -0.65626700       0.40572300
H        3.25413200       1.17975800       0.95244600
C        3.37789400      -1.77877500      -1.55566800
H        1.71812900      -0.80376700      -2.53735500
C        4.29245300      -1.72208500      -0.50002500
H        4.94792700      -0.61181600       1.23269200
H        3.40372500      -2.60995800      -2.25522000
H        5.03332300      -2.50759200      -0.37824000
C        2.14840800       2.73480700      -1.47112600
C        1.23386700       3.82287500      -1.80957800
H        2.77617700       2.48788300      -2.33671200
H        2.81993100       3.03759700      -0.65795900
C        0.45225500       4.70280400      -2.08812700
H       -0.22915300       5.48907800      -2.32956400
Cl      -0.20553300       2.12554400       2.80931100
Cl      -2.53893800       2.25722200       0.70619400
O       -1.09308600       0.28651500      -0.76150400
O       -0.78994500      -0.35661700       1.68323800
C       -2.02898700      -1.81143900      -0.33294200
C       -0.73327000      -2.21518400       0.22452400
C        1.10097700      -1.69262000       1.66109800
C       -3.28303000      -0.10476500      -1.42440200
C       -4.36455100      -0.96178300      -1.56016000
C       -3.09855300      -2.69097900      -0.46418100
C       -4.27877700      -2.26671100      -1.07396100
C       -0.08975400      -3.38569200      -0.16705500
C        1.16109300      -3.70701800       0.35807900
C        1.76439100      -2.84471300       1.27330800
H       -2.99492800      -3.69559200      -0.07166600
H       -5.11740400      -2.94761200      -1.16842700
H       -0.57051000      -4.01531000      -0.90616400
H        1.66386600      -4.61470000       0.04363900
H        2.74067000      -3.04840300       1.69305200
H        1.46801500      -0.97934000       2.38620400
N       -2.15193400      -0.53654300      -0.81786200
N       -0.11917400      -1.41893100       1.14670100
H       -3.25218700       0.91536900      -1.78007500
H       -5.25973900      -0.59477100      -2.04844700
