45
Properties=species:S:1:pos:R:3 pbc="F F F"
Si      -0.04553300      -1.14436300       0.73426900
O        1.63164900      -1.19651800       0.58412500
C        2.38386000      -0.93159900      -0.61499500
C        2.79896700       0.52690000      -0.65751700
H        1.78664700      -1.16572100      -1.50489300
C        3.46700800       1.10350800       0.43266400
C        2.49436100       1.32078200      -1.76811900
C        3.81176800       2.45795400       0.41570800
H        3.68994400       0.49679800       1.30562100
C        2.83740200       2.67690300      -1.78878500
H        1.96590900       0.87822700      -2.60904700
C        3.49423100       3.24923500      -0.69487100
H        4.32164100       2.89637800       1.26938000
H        2.58526600       3.28611100      -2.65268000
H        3.75544200       4.30389800      -0.70535800
C        3.63168300      -1.84721400      -0.60586400
C        3.32089900      -3.27094700      -0.70603400
H        4.27227800      -1.54891400      -1.44600600
H        4.19464500      -1.64763500       0.31473600
C        3.06298400      -4.44856300      -0.80350600
H        2.82964300      -5.48768800      -0.88293000
Cl       0.08232500      -1.29517400       2.83968500
Cl      -0.53819100      -2.81361500      -0.47234800
O       -0.19156400       0.31204800      -0.33206800
O       -1.89958100      -0.81658700       1.15305700
C       -2.06638600       1.68177000       0.02222100
C       -2.93288400       0.58603100      -0.42717000
C       -3.59458300      -1.68687700      -0.17286200
C        0.14229600       2.43395800       0.53223000
C       -0.34041300       3.68731900       0.87229100
C       -2.56774400       2.94090900       0.34187700
C       -1.70667100       3.95123200       0.76862600
C       -3.93457000       0.77538800      -1.37557000
C       -4.76862100      -0.28315200      -1.73188400
C       -4.59298600      -1.52513400      -1.12077600
H       -3.63699200       3.10241100       0.27400400
H       -2.10203400       4.92805100       1.02483900
H       -4.03513600       1.75140800      -1.83522400
H       -5.54326700      -0.13776100      -2.47669700
H       -5.22190400      -2.37343300      -1.36416700
H       -3.39704400      -2.60275300       0.36607100
N       -0.71917700       1.47667500       0.11696700
N       -2.79447200      -0.64501600       0.15333500
H        1.18553800       2.14695200       0.55514200
H        0.36451400       4.44057000       1.20371300
