45
Properties=species:S:1:pos:R:3 pbc="F F F"
Si       0.00294200      -1.17007400       0.36150300
O        1.51045500      -1.36861400      -0.35849200
C        2.78006100      -0.81370200       0.01051000
C        2.90330900       0.66095600      -0.31622900
H        2.93993900      -0.95295600       1.08508100
C        2.56474100       1.14756000      -1.58647600
C        3.38554700       1.55108300       0.65135200
C        2.69346200       2.50660000      -1.87877600
H        2.17592200       0.46215300      -2.33359500
C        3.52258400       2.91387300       0.35938400
H        3.64130800       1.17598900       1.63952400
C        3.17311300       3.39399000      -0.90597200
H        2.41926400       2.87685400      -2.86304200
H        3.89141500       3.59632600       1.12026300
H        3.26992900       4.45195600      -1.13393400
C        3.86267600      -1.62045400      -0.74980000
C        3.90032600      -3.03045400      -0.36872500
H        4.83503100      -1.15411300      -0.54609700
H        3.67450600      -1.52084600      -1.82648100
C        3.92521700      -4.19179500      -0.03089800
H        3.94781400      -5.21909700       0.26039800
Cl       0.57292200      -1.03539900       2.39458600
Cl      -0.69714400      -2.94889400      -0.56729500
O       -0.28208300       0.35158400      -0.54011600
O       -1.77064300      -0.90496700       1.11823300
C       -2.24244600       1.55435700       0.04188500
C       -3.08735800       0.40792300      -0.30964100
C       -3.63266100      -1.86960300       0.11096800
C       -0.06110900       2.46332300       0.36108500
C       -0.59700000       3.67152100       0.77534500
C       -2.80028800       2.76653000       0.44190100
C       -1.98172500       3.83397000       0.80741600
C       -4.20725700       0.53177100      -1.12696800
C       -5.04432500      -0.56388100      -1.33345900
C       -4.75521100      -1.77149500      -0.69689900
H       -3.87983600       2.84433300       0.48741400
H       -2.42322700       4.77263600       1.12374100
H       -4.40307500       1.48901600      -1.59584900
H       -5.91267200      -0.47166100      -1.97639900
H       -5.38763700      -2.64339800      -0.81633200
H       -3.33421400      -2.75797300       0.64873600
N       -0.88161100       1.44933000       0.00225300
N       -2.82327300      -0.79769100       0.27935000
H        0.99698000       2.25888000       0.28023000
H        0.08155700       4.46798000       1.05710000
