45
Properties=species:S:1:pos:R:3 pbc="F F F"
Si       0.40684000      -1.45462300      -0.24679300
O        1.56880700      -0.41201600      -0.75507300
C        2.55583900       0.52236900      -0.24625100
C        1.90712500       1.60724500       0.58744500
H        2.95636200       0.97704600      -1.15781200
C        1.35893300       1.33305800       1.84924000
C        1.84436100       2.91372300       0.08751200
C        0.74014400       2.34566900       2.58428900
H        1.40901700       0.32705700       2.25351200
C        1.23349800       3.93161500       0.82502900
H        2.27856800       3.13303600      -0.88489200
C        0.67383800       3.64731800       2.07350800
H        0.31625900       2.12125100       3.55959300
H        1.19244500       4.94081000       0.42386400
H        0.19513800       4.43503100       2.64927000
C        3.73804300      -0.15331300       0.48342600
C        4.39170900      -1.18292900      -0.31915000
H        4.45207900       0.64890000       0.71246100
H        3.40404200      -0.57032400       1.43721900
C        4.92192900      -2.02818600      -1.00266600
H        5.39146700      -2.78148100      -1.59665400
Cl       0.12050100      -3.29016200      -1.24538600
Cl       1.41665500      -2.37174400       1.48392600
O       -0.80498100      -0.85113200       0.93343800
O       -0.74484100      -0.77726500      -1.61392800
C       -2.76022100       0.07719100      -0.02986800
C       -1.95019000       1.04514400      -0.77836300
C       -0.19394500       1.35945200      -2.35383300
C       -2.83626100      -1.85433900       1.37003500
C       -4.22057200      -1.86501200       1.32288500
C       -4.15214400       0.09793200      -0.07059700
C       -4.89013300      -0.87073900       0.60759100
C       -2.21166400       2.41131000      -0.78218900
C       -1.44919000       3.26024300      -1.58292900
C       -0.43565200       2.72412300      -2.37715000
H       -4.63715000       0.86281200      -0.66547000
H       -5.97362600      -0.85581600       0.56561800
H       -2.99963300       2.79302900      -0.14387400
H       -1.64162500       4.32718100      -1.58004800
H        0.18040700       3.35087900      -3.01079200
H        0.56985400       0.85214400      -2.92605200
N       -2.14856800      -0.89329300       0.71151200
N       -0.94888500       0.55779400      -1.57098800
H       -2.22950300      -2.55957400       1.92288700
H       -4.75391100      -2.64432000       1.85414200
