51
Properties=species:S:1:pos:R:3 pbc="F F F"
Si      -0.49725000      -1.57357500      -0.00417200
O       -1.65659400      -0.61398900       0.67621900
C       -2.88036100      -0.07180100       0.12120200
C       -2.58403000       1.02449900      -0.87974400
H       -3.44302200      -0.87319000      -0.36446300
C       -1.73286700       2.08573300      -0.54369500
C       -3.16981100       0.99610800      -2.14983200
C       -1.46077500       3.09797300      -1.46503300
H       -1.27986200       2.11655100       0.44105800
C       -2.90728100       2.01261800      -3.07343800
H       -3.82139400       0.16871000      -2.41788000
C       -2.04944100       3.06368400      -2.73458600
H       -0.79465600       3.91307400      -1.19265600
H       -3.36450900       1.97852500      -4.05878300
H       -1.83926500       3.84995400      -3.45484400
C       -3.70210400       0.47007100       1.31231800
C       -4.06644500      -0.56137700       2.28125300
H       -4.60660400       0.93678000       0.90244800
H       -3.12708900       1.26534700       1.80326900
C       -4.36104600      -1.42936700       3.07038100
H       -4.62600700      -2.19333800       3.76827600
Cl      -0.01584700      -3.52338500       0.65318900
Cl      -1.61453500      -2.28372100      -1.76486200
O        0.60132200      -0.72106400      -1.13266800
O        0.66447800      -1.05511400       1.41859700
C        2.58017100       0.03256200      -0.08376200
C        1.73851900       0.91327800       0.75237200
C        0.09428900       0.92724300       2.48486700
C        2.60589000      -1.66813600      -1.77031200
C        3.98741600      -1.74221200      -1.69809900
C        3.97619200      -0.02982800       0.03137500
C        4.66576800      -0.93004300      -0.79753000
C        1.87406300       2.30343400       0.82458000
C        1.11553400       2.98468800       1.79077400
C        0.24972100       2.29822600       2.63383500
H        5.74575900      -0.99704600      -0.71422100
H        1.20847000       4.06338500       1.86732600
H       -0.33653800       2.81286100       3.38603000
H       -0.58946600       0.30792600       3.04789600
N        1.95486100      -0.80013500      -0.97121100
N        0.82548900       0.28242600       1.55621500
H        1.98157800      -2.25656400      -2.42925300
H        4.50899100      -2.44286700      -2.33915600
C        4.74123300       0.80528700       1.02147000
H        5.15850700       1.68851200       0.52399300
H        4.11561800       1.14155000       1.85071400
H        5.57679300       0.22269400       1.41952000
C        2.76939800       3.07304900      -0.10590200
H        2.19990600       3.89953500      -0.54379500
H        3.60909500       3.50653200       0.44827900
H        3.16140600       2.45308600      -0.91409100
