51
Properties=species:S:1:pos:R:3 pbc="F F F"
Si       0.54497900      -0.65753700       0.61952300
O        1.45352300       0.70712300       0.83187800
C        2.34825900       1.30227700      -0.14207600
C        3.48325600       0.37161900      -0.51433500
H        1.78834500       1.54209700      -1.05129100
C        4.22540300      -0.28275200       0.47760200
C        3.81272600       0.18295100      -1.86089300
C        5.28201600      -1.12301300       0.12262800
H        3.95660300      -0.15131100       1.52116900
C        4.87496200      -0.65259300      -2.21778700
H        3.22864000       0.68332300      -2.63021000
C        5.61002500      -1.30849700      -1.22561700
H        5.84817300      -1.63526600       0.89607600
H        5.12137900      -0.79778700      -3.26629000
H        6.43160800      -1.96467200      -1.50065500
C        2.90524300       2.59667000       0.48996300
C        1.89286600       3.59732500       0.81974200
H        3.62989200       3.02075300      -0.21634000
H        3.46158800       2.31772400       1.39373100
C        1.06493100       4.43373700       1.09925600
H        0.33831200       5.17217600       1.35783200
Cl       0.98248100      -2.18067600      -0.75207400
Cl       1.36879000      -1.65368300       2.39759400
O       -1.05993300      -0.75536100       1.39821200
O       -0.40997900       0.17512400      -0.90963200
C       -2.82873800      -0.66345900      -0.15214900
C       -2.56277200       0.78476700      -0.22310900
C       -0.94989100       2.43816100      -0.80159300
C       -2.17471700      -2.72242500       0.88735000
C       -3.16930800      -3.40049800       0.20112400
C       -3.82319300      -1.32183000      -0.88668900
C       -3.97921700      -2.70338800      -0.68836000
C       -3.51256700       1.76535900       0.07689400
C       -3.14572100       3.10945800      -0.10382500
C       -1.87619500       3.44120800      -0.55483900
H       -4.74024200      -3.23044700      -1.25506300
H       -3.86693400       3.88773500       0.12407900
H       -1.57581800       4.47210000      -0.70040300
H        0.06242600       2.61698200      -1.12714400
N       -2.03808100      -1.39674800       0.68654100
N       -1.30100000       1.14937900      -0.62908000
H       -1.47520500      -3.16587700       1.58374800
H       -3.28224600      -4.46647200       0.35859200
C       -4.68794900      -0.60394300      -1.88580800
H       -5.66910900      -0.38625400      -1.44867200
H       -4.24166100       0.33583700      -2.21786400
H       -4.84860100      -1.24843800      -2.75499500
C       -4.88163400       1.42898800       0.60183800
H       -5.13022000       2.10976300       1.42186700
H       -5.63264500       1.57127100      -0.18345600
H       -4.94762100       0.40215000       0.96632700
