51
Properties=species:S:1:pos:R:3 pbc="F F F"
Si       0.55710200      -1.19266600       0.76840100
O        2.18518200      -0.79035100       0.58384800
C        2.81785800      -0.38655900      -0.64551100
C        2.83156700       1.12655200      -0.75114700
H        2.28752100      -0.80735900      -1.50860200
C        3.37990600       1.90020200       0.28223800
C        2.27193500       1.76876500      -1.86037100
C        3.35600700       3.29584800       0.21102800
H        3.79948900       1.40715900       1.15449300
C        2.24437900       3.16535900      -1.93484200
H        1.83652100       1.17087700      -2.65740000
C        2.78410200       3.93211900      -0.89739800
H        3.77729700       3.88576900       1.02066000
H        1.79667600       3.65278500      -2.79689300
H        2.75872200       5.01717200      -0.95026100
C        4.26436000      -0.93712300      -0.64060000
C        4.34661400      -2.39502600      -0.66819400
H        4.78312500      -0.52148100      -1.51433800
H        4.77343800      -0.54803800       0.25041400
C        4.42206300      -3.60161300      -0.70447900
H        4.47940100      -4.66771400      -0.73011700
Cl       0.76805600      -1.25366500       2.87438100
Cl       0.51831300      -2.95158000      -0.41075500
O       -0.00422500       0.15620300      -0.30339400
O       -1.30905500      -1.38975500       1.24402400
C       -2.13702800       0.96927600       0.23686900
C       -2.66252000      -0.28882400      -0.32883300
C       -2.70224400      -2.66579900      -0.10016700
C       -0.15899200       2.25456400       0.66261300
C       -0.92732900       3.28896700       1.17289700
C       -2.94115500       1.98188900       0.77600300
C       -2.30777700       3.14672400       1.24023300
C       -3.58533300      -0.34493400      -1.37943600
C       -4.07441100      -1.60656600      -1.75688900
C       -3.65263200      -2.75915500      -1.10638100
H       -2.91544700       3.93850900       1.66660100
H       -4.78878400      -1.67035400      -2.57172100
H       -4.03219800      -3.73687800      -1.37929100
H       -2.28840100      -3.50145800       0.44600200
N       -0.77872500       1.13928500       0.22751400
N       -2.22634200      -1.45386600       0.24862100
H        0.92011700       2.25814500       0.58377600
H       -0.42881300       4.18448800       1.52461700
C       -4.43472100       1.84946100       0.89436300
H       -4.92724800       2.43966400       0.11309400
H       -4.76743800       0.81356000       0.80837800
H       -4.75688600       2.24790600       1.86122000
C       -4.03787300       0.88251900      -2.12221800
H       -4.00777200       0.68265500      -3.19800600
H       -5.07432200       1.12289800      -1.86022400
H       -3.41309200       1.75161600      -1.90909000
