51
Properties=species:S:1:pos:R:3 pbc="F F F"
Si      -0.70588700      -1.54878400       0.73744200
O       -1.99318100      -0.67005300       0.21417200
C       -2.27962500       0.06304400      -1.00417900
C       -2.03124500       1.54066500      -0.79494500
H       -1.65580600      -0.30002600      -1.82277600
C       -2.68794500       2.23991300       0.23007600
C       -1.18265700       2.23843700      -1.66162300
C       -2.51411600       3.61792400       0.36865900
H       -3.33629200       1.70227400       0.91636800
C       -1.00693600       3.61945300      -1.52401100
H       -0.66486100       1.69761200      -2.45000900
C       -1.67830800       4.31243700      -0.51307600
H       -3.03129400       4.15050500       1.16220200
H       -0.35041300       4.15212000      -2.20680000
H       -1.54601500       5.38577000      -0.40713200
C       -3.75917300      -0.21554200      -1.35541400
C       -4.00610300      -1.62042800      -1.67212200
H       -4.02508800       0.41593700      -2.21267000
H       -4.38584900       0.10025800      -0.51229500
C       -4.18078600      -2.78812100      -1.93432900
H       -4.34412400      -3.81953100      -2.15871000
Cl      -1.71657800      -2.06601700       2.61823800
Cl      -0.29649100      -3.56308400       0.23337000
O        0.26814900      -0.97758400      -0.83102600
O        0.58344900      -0.75924100       1.69807700
C        2.42093800      -0.30228800      -0.23643300
C        1.75815700       0.83896900       0.42296500
C        0.14255000       1.48499800       2.07087500
C        2.06279100      -2.21842500      -1.61764600
C        3.43185900      -2.43150800      -1.69083400
C        3.80442500      -0.50285500      -0.25942500
C        4.29586400      -1.59043300      -1.00048900
C        2.00132800       2.17856100       0.10366300
C        1.30160100       3.16417900       0.82010400
C        0.38749500       2.82251400       1.80741000
H        5.36619000      -1.76872900      -1.02478500
H        1.47315200       4.20783100       0.57922600
H       -0.16227000       3.57407600       2.35907300
H       -0.56403900       1.10836900       2.79820100
N        1.59554400      -1.18362100      -0.88960600
N        0.82602000       0.55127900       1.38251600
H        1.31024100      -2.82563500      -2.09967600
H        3.79967900      -3.26644900      -2.27565300
C        4.75735800       0.39005600       0.48713700
H        5.24010800       1.08804200      -0.20639900
H        4.25893000       0.96744000       1.26872400
H        5.54369900      -0.21945000       0.94216900
C        2.93624700       2.58791300      -0.99979400
H        2.46574300       3.37830000      -1.59270700
H        3.86148800       2.99716200      -0.57802800
H        3.19083000       1.75646200      -1.65943600
