51
Properties=species:S:1:pos:R:3 pbc="F F F"
Si       0.25991700       0.84610200      -0.30891500
O        1.77489200       0.36331800       0.21907000
C        3.10646900       0.52202600      -0.27483000
C        3.96427500      -0.57054800       0.33419700
H        3.11469600       0.41300500      -1.36500400
C        3.93404500      -0.82277500       1.71308900
C        4.83134200      -1.31076200      -0.47754300
C        4.75759200      -1.80428300       2.26875700
H        3.25521100      -0.25611300       2.34428600
C        5.65980000      -2.29248800       0.07693900
H        4.85541900      -1.11848300      -1.54814100
C        5.62428800      -2.54116500       1.45217400
H        4.72570300      -1.99458400       3.33865900
H        6.32659400      -2.86319200      -0.56437500
H        6.26480700      -3.30478400       1.88577400
C        3.68645700       1.92039600       0.08568300
C        3.18608800       3.00335400      -0.75632600
H        4.77807900       1.86700600      -0.01450400
H        3.46713000       2.11696000       1.14257000
C        2.79532900       3.88445100      -1.48710700
H        2.43060000       4.66158700      -2.12218700
Cl       0.62327000       0.73447200      -2.40114500
Cl       0.10687700       2.61758800       0.84275200
O       -0.45167400      -0.50166300       0.64723500
O       -1.56841200       1.13151900      -0.97997600
C       -2.51125900      -1.24776300      -0.19005700
C       -3.08745000      -0.01619100       0.38580700
C       -3.08240400       2.36877700       0.27112000
C       -0.49810100      -2.51134200      -0.50233300
C       -1.20370300      -3.49613700      -1.17469300
C       -3.25200700      -2.20985300      -0.88939800
C       -2.57109900      -3.33911700      -1.37308100
C       -4.11683300      -0.00103400       1.33244000
C       -4.63060600       1.24764400       1.72082800
C       -4.13140500       2.42470200       1.17754700
H       -3.12836500      -4.09003500      -1.92406700
H       -5.42592300       1.28168500       2.45880200
H       -4.52854300       3.39280300       1.45972200
H       -2.60788300       3.22459700      -0.18725800
N       -1.16475300      -1.43354100      -0.04232500
N       -2.58142300       1.16928800      -0.08662000
H        0.56631100      -2.51964700      -0.30714700
H       -0.67052100      -4.36275600      -1.54714700
C       -4.72237100      -2.04818600      -1.15986600
H       -5.30442300      -2.64205500      -0.44590100
H       -5.04228400      -1.00696400      -1.08472500
H       -4.94998500      -2.42025300      -2.16296600
C       -4.66271300      -1.25858000       1.95247100
H       -4.80394800      -1.09885200       3.02577100
H       -5.64229200      -1.49721600       1.52303900
H       -4.00135100      -2.11552300       1.80937000
