45
Properties=species:S:1:pos:R:3 pbc="F F F"
Si       0.82664500      -1.01650100       0.75264900
O        2.38014800      -0.56977000       0.56599600
C        3.05115400      -0.39119200      -0.73100800
C        2.42022500       0.74613100      -1.50033200
H        2.94307400      -1.32464500      -1.29243400
C        2.42775900       2.05060400      -0.98515700
C        1.77982200       0.49129000      -2.71835600
C        1.79388800       3.08305900      -1.67620700
H        2.91401700       2.25339800      -0.03540400
C        1.14771300       1.52610900      -3.41527500
H        1.77023400      -0.52054700      -3.11632200
C        1.15067700       2.82223600      -2.89308100
H        1.80264500       4.09100800      -1.26983400
H        0.65279000       1.31876400      -4.36017000
H        0.65803000       3.62762600      -3.43131900
C        4.54112600      -0.15112500      -0.42687300
C        5.18628800      -1.28404100       0.23318400
H        4.63522900       0.75140600       0.18937200
H        5.03802000       0.05849900      -1.38248500
C        5.70812400      -2.23240400       0.77206500
H        6.17428800      -3.06601800       1.25041100
Cl       0.51240300      -1.38395500       2.73244100
Cl       0.34440700      -2.55758800      -0.51101100
O       -0.18048700       0.29106100       0.20802400
O       -2.31824900      -1.49456300       1.12987100
C       -2.28310500       1.17671800       0.72723200
C       -2.85737500       0.27160200      -0.28184000
C       -3.34497700      -1.95034300      -0.90222000
C       -0.33279000       1.96247000       1.86286000
C       -1.06076400       2.91645400       2.54973000
C       -3.02999100       2.14043200       1.38560800
C       -2.42604200       3.00868800       2.30002500
C       -3.44461800       0.73795800      -1.45007600
C       -3.98009900      -0.16388700      -2.36937100
C       -3.92147000      -1.52838600      -2.08481200
H       -4.09270500       2.18730600       1.18269200
H       -3.02045400       3.75273600       2.81851400
H       -3.45515000       1.80616000      -1.63530500
H       -4.43016000       0.18590100      -3.29102200
H       -4.31823500      -2.28070500      -2.75738100
N       -0.93392800       1.11086000       0.98813700
N       -2.81681700      -1.08042900       0.02489500
H       -0.53939700       3.56296800       3.24542200
F        0.96709100       1.83059100       1.99796800
F       -3.28046700      -3.22922500      -0.56630800
