45
Properties=species:S:1:pos:R:3 pbc="F F F"
Si      -0.25622900       1.12324800       0.76502900
O        0.82576100       1.45739100      -0.42194800
C        2.26438700       1.55833900      -0.41539900
C        2.88295300       0.18800300      -0.58307500
H        2.60332500       2.00604200       0.52224000
C        2.37100200      -0.71741400      -1.52367000
C        4.00086300      -0.17050700       0.17832400
C        2.97072300      -1.96682600      -1.69605700
H        1.49876200      -0.44253000      -2.11016700
C        4.60260200      -1.42030500       0.00600300
H        4.39175200       0.52731200       0.91478300
C        4.08830600      -2.32137100      -0.93132500
H        2.56693500      -2.66441100      -2.42514100
H        5.46587400      -1.69221600       0.60735100
H        4.55308800      -3.29467900      -1.06424300
C        2.65478400       2.48968300      -1.58632400
C        2.14979600       3.85134800      -1.42470000
H        2.28087800       2.05003200      -2.51978200
H        3.75028800       2.50030100      -1.64855100
C        1.72510700       4.97263100      -1.26611200
H        1.35249000       5.96450300      -1.13123400
Cl       0.95905500       1.56085800       2.53220800
Cl      -1.80165000       2.45548100       1.27756100
O       -1.27017700       0.49841400      -0.79546400
O       -0.58406400      -0.49690600       1.47108200
C       -2.65773900      -1.30816800      -0.22018400
C       -1.44654600      -2.11729100      -0.03195000
C        0.71386500      -2.35137600       0.94352800
C       -3.58717800       0.74272200      -0.96557400
C       -4.87466000       0.23957800      -0.85862000
C       -3.93052300      -1.84762300      -0.10725700
C       -5.04779600      -1.06610100      -0.41330100
C       -1.30754300      -3.36877500      -0.61413400
C       -0.14270200      -4.11487200      -0.41120200
C        0.88414200      -3.60097300       0.37110500
H       -4.03510500      -2.87175700       0.22919500
H       -6.04537200      -1.47933700      -0.31644900
H       -2.10917000      -3.73651500      -1.24254500
H       -0.03638500      -5.09043600      -0.87213900
H        1.81016000      -4.13037600       0.55810800
N       -2.49960400      -0.00338200      -0.62547900
N       -0.42470500      -1.63314300       0.74517900
H       -5.70269300       0.88152700      -1.13512200
F       -3.34449500       1.94201500      -1.43595100
F        1.60909800      -1.80539300       1.72367300
