45
Properties=species:S:1:pos:R:3 pbc="F F F"
Si       0.25594400      -0.69245300      -0.24585400
O        1.11267900       0.65754000       0.12364100
C        2.32509600       0.98779600       0.84039600
C        3.51889100       0.20229300       0.32077400
H        2.47642500       2.04161500       0.57628000
C        4.44909400      -0.42040700       1.16063600
C        3.70857700       0.13672800      -1.06843900
C        5.54248800      -1.10669700       0.62200800
H        4.32577100      -0.39006600       2.23812300
C        4.79480100      -0.55251100      -1.60789000
H        2.99034200       0.61686200      -1.72710000
C        5.71776800      -1.17785400      -0.76199100
H        6.25218900      -1.59117100       1.28744900
H        4.92241600      -0.60014700      -2.68622100
H        6.56514200      -1.71560400      -1.17899800
C        2.10863600       0.92901000       2.36608200
C        0.96867800       1.73160500       2.80258900
H        3.02089800       1.30769200       2.84388800
H        1.98129400      -0.11125800       2.68262500
C        0.02552300       2.39966500       3.15922000
H       -0.79985400       2.99006500       3.49064400
Cl       0.45069200      -1.79136900      -2.02826300
Cl       1.26249800      -2.15977100       1.01910000
O       -1.20679800      -0.93956700       0.76936400
O       -0.85776400       0.46611600      -1.34623300
C       -3.15397600       0.15508500       0.01578200
C       -2.45158900       1.44738000       0.04151000
C       -0.71251600       2.77640700      -0.90574900
C       -3.06915200      -2.23074000       0.18756300
C       -4.41966300      -2.31193700      -0.14383200
C       -4.50414200       0.08925000      -0.29546900
C       -5.14338200      -1.14902400      -0.37276500
C       -2.96643200       2.55509600       0.69772300
C       -2.32593300       3.78805000       0.57048600
C       -1.20665800       3.89909700      -0.24521200
H       -5.03165800       1.01134800      -0.50566900
H       -6.19649500      -1.20557900      -0.62487700
H       -3.85586700       2.43713800       1.30461400
H       -2.70619100       4.65956900       1.09161300
H       -0.70232600       4.84617600      -0.39218800
N       -2.46807600      -1.00359000       0.27315400
N       -1.31804100       1.56398500      -0.72355500
H       -4.87697700      -3.29154500      -0.20671800
Cl       0.59735300       2.88656600      -1.99537000
Cl      -2.13801900      -3.61754300       0.51786100
