45
Properties=species:S:1:pos:R:3 pbc="F F F"
Si      -0.17720200      -0.97926600       0.15844800
O        1.31082400      -1.40833600      -0.47418400
C        2.62924100      -1.36199000       0.06821200
C        3.47070600      -0.27033500      -0.56664900
H        2.59593800      -1.20276900       1.15232000
C        3.17900600       0.24983900      -1.83147500
C        4.59648700       0.19785500       0.12463400
C        3.99610300       1.23681800      -2.39205400
H        2.30400300      -0.10800000      -2.36431300
C        5.41462700       1.18302700      -0.43368000
H        4.82445100      -0.20459400       1.10969600
C        5.11394200       1.70754700      -1.69570100
H        3.75847100       1.63953600      -3.37358000
H        6.28044200       1.54350700       0.11578200
H        5.74529300       2.47743300      -2.13151000
C        3.29302700      -2.74187700      -0.19828500
C        2.62009500      -3.85225300       0.47069500
H        4.33751400      -2.68392100       0.13226300
H        3.30405200      -2.90379000      -1.28399400
C        2.05721200      -4.76423600       1.03168700
H        1.55792600      -5.56814000       1.52664900
Cl       0.10114900      -1.46999700       2.18819400
Cl      -1.16266300      -2.15622200      -1.30094300
O        0.04399300       0.72765500      -0.34327000
O       -1.95194300      -0.39783000       0.85442800
C       -1.77063400       2.19668600       0.05537200
C       -2.73643800       1.28072500      -0.57137000
C       -3.93885400      -0.76782900      -0.34170800
C        0.39150600       2.61676900       0.98527100
C       -0.03550400       3.85666300       1.45390600
C       -2.20023100       3.44175100       0.49652500
C       -1.32985600       4.28216900       1.19040800
C       -3.63484400       1.71432900      -1.53562800
C       -4.68481700       0.88333300      -1.92756000
C       -4.85294000      -0.34769100      -1.30506500
H       -3.23142700       3.72281100       0.32178800
H       -1.66801300       5.25072300       1.54172400
H       -3.50596400       2.70141600      -1.96209400
H       -5.38369200       1.20656700      -2.69092800
H       -5.68392300      -0.99925900      -1.54612900
N       -0.47064500       1.82129000       0.27684300
N       -2.86360600       0.02281400      -0.03220900
H        0.66772800       4.46728100       2.00639100
Cl      -4.14499300      -2.23057700       0.51412200
Cl       1.98461300       2.07106000       1.23122700
