45
Properties=species:S:1:pos:R:3 pbc="F F F"
Si       0.29979900       0.00591200       0.79212800
O        1.04354200      -0.67393200      -0.50425500
C        2.32710700      -1.33173500      -0.60134000
C        3.45810100      -0.34250600      -0.43064500
H        2.39466800      -2.11027400       0.16352600
C        3.43186100       0.88913000      -1.09963000
C        4.55257900      -0.66299900       0.37973300
C        4.48818800       1.79052000      -0.95518400
H        2.57619000       1.14397200      -1.71881500
C        5.61429400       0.23579400       0.52036800
H        4.56529100      -1.61265800       0.90919300
C        5.58294400       1.46463700      -0.14604200
H        4.45816200       2.74665900      -1.47131600
H        6.45795600      -0.01862500       1.15651000
H        6.40404900       2.16745400      -0.03157600
C        2.37194300      -1.98941400      -2.00033100
C        1.33867500      -3.00429600      -2.19739300
H        3.36534000      -2.43898700      -2.12214200
H        2.27878800      -1.19950600      -2.75643900
C        0.47990000      -3.84419800      -2.34031600
H       -0.27250900      -4.59049300      -2.47148000
Cl       0.67554400       1.89060600       1.65892600
Cl       1.27221200      -1.08341100       2.42335700
O       -0.69937600       0.88010300      -0.67374700
O       -1.26942300      -0.65741800       1.32828000
C       -2.91864500       1.14157800      -0.00280200
C       -3.06751100      -0.31545200      -0.14755800
C       -2.23031300      -2.51940300       0.27156400
C       -1.58815800       3.04904700      -0.52941200
C       -2.64781300       3.88709000      -0.18766700
C       -3.98724200       1.95821400       0.33362400
C       -3.84223700       3.34499200       0.27066000
C       -4.09730900      -0.84609400      -0.91042100
C       -4.18882000      -2.22693100      -1.09483800
C       -3.24589000      -3.06291000      -0.51225800
H       -4.91874900       1.49826200       0.64043600
H       -4.66363400       3.99583900       0.54866600
H       -4.79755500      -0.16617100      -1.37933400
H       -4.98477200      -2.64528700      -1.70088800
H       -3.27885800      -4.13810500      -0.63782500
N       -1.71430200       1.69352800      -0.37305700
N       -2.16539800      -1.16213200       0.43964200
H       -2.51495000       4.95627700      -0.29886900
Cl      -1.07772400      -3.49687100       1.05065400
Cl      -0.14630100       3.66195100      -1.20990300
