45
Properties=species:S:1:pos:R:3 pbc="F F F"
Si      -0.10709200      -1.22061800      -0.70729800
O        1.43765500      -0.70741500      -0.44545800
C        2.40169900      -1.09544900       0.56888100
C        2.03895900      -0.46636400       1.89598300
H        2.40765100      -2.18347900       0.66469300
C        1.92283300       0.92532600       2.01445000
C        1.80374100      -1.26815800       3.01798300
C        1.56921500       1.50836100       3.23151000
H        2.11062200       1.55328900       1.14983800
C        1.45595300      -0.68801700       4.24217000
H        1.88121800      -2.34795100       2.92621700
C        1.33477500       0.70052300       4.35073500
H        1.48210300       2.58904400       3.30981500
H        1.27404300      -1.32013700       5.10725100
H        1.06097400       1.15159400       5.30082100
C        3.78809400      -0.63233700       0.07251900
C        4.20053900      -1.28222400      -1.16926300
H        4.51026000      -0.85504900       0.86822500
H        3.77899800       0.45711500      -0.05453400
C        4.52883200      -1.83607800      -2.19299100
H        4.82090400      -2.32406200      -3.09712100
Cl      -0.79582800      -2.11719900      -2.48372300
Cl      -0.07059900      -3.08763000       0.43287800
O       -1.28379500      -0.58561500       0.48904600
O       -0.39223800       0.41008600      -1.70992900
C       -2.22089100       1.51006600      -0.05430700
C       -0.88131300       2.10585000      -0.18409600
C        1.15019700       2.16386400      -1.43600200
C       -3.59877000      -0.42771900       0.22270900
C       -4.74356900       0.35237600       0.07819600
C       -3.35406000       2.29968200      -0.18815600
C       -4.62253000       1.72175100      -0.11615800
C       -0.53543200       3.28232400       0.46409500
C        0.67898300       3.90149300       0.16660900
C        1.51270500       3.34982900      -0.79875300
H       -3.22798900       3.35793000      -0.38001800
H       -5.50951700       2.33555100      -0.22701600
H       -1.21991500       3.69762400       1.19377200
H        0.96642700       4.81526700       0.67441500
H        2.44870500       3.81839800      -1.07690500
N       -2.36543700       0.16460100       0.16732800
N       -0.02075600       1.54443500      -1.09410400
H       -5.70925300      -0.13540000       0.12800900
Cl       2.10415900       1.47761000      -2.66989600
Cl      -3.68157500      -2.10639300       0.49228200
