45
Properties=species:S:1:pos:R:3 pbc="F F F"
Si      -0.60520400       0.96261100       1.15244000
O        0.32803200       1.93564900       0.21538600
C        0.58767900       2.00574500      -1.21460100
C        1.70956400       1.06309100      -1.58939200
H       -0.31716400       1.74398700      -1.76631200
C        2.97060400       1.17808000      -0.98622300
C        1.50237200       0.07169300      -2.55593200
C        4.00663600       0.31388600      -1.34490100
H        3.13555100       1.93748300      -0.22736900
C        2.53934800      -0.79260900      -2.91967400
H        0.52300300      -0.02275500      -3.01791600
C        3.79361000      -0.67294700      -2.31426700
H        4.97884900       0.40939900      -0.86893200
H        2.36650400      -1.55950900      -3.67017900
H        4.60016300      -1.34591900      -2.59293300
C        0.94556700       3.47557700      -1.52577200
C       -0.16879900       4.38980000      -1.28579400
H        1.25102600       3.52590700      -2.57868000
H        1.81442100       3.76447200      -0.92182900
C       -1.11195200       5.12056800      -1.08807500
H       -1.93797000       5.77341000      -0.90823500
Cl      -0.00299000       1.95857200       2.99125800
Cl      -2.67072500       1.17310300       1.54194100
O       -1.02128200      -0.05239900      -0.48348300
O       -0.00763800      -0.59238700       1.81940500
C       -1.30354200      -2.30029200       0.04156200
C        0.14859400      -2.35889800       0.27254100
C        2.11430200      -1.43159200       1.27321600
C       -3.09578000      -1.05558100      -0.92475700
C       -3.92489800      -2.17160100      -0.83380700
C       -2.10978900      -3.42457500       0.12978900
C       -3.44153000      -3.35231100      -0.28272900
C        0.91866600      -3.32559700      -0.35642200
C        2.30332200      -3.33486100      -0.18476500
C        2.90118400      -2.37891700       0.62400300
H       -1.68459700      -4.34183800       0.51958500
H       -4.08831400      -4.21879200      -0.20213500
H        0.42525400      -4.03879100      -1.00472000
H        2.91218000      -4.07592200      -0.69026400
H        3.97198100      -2.34802100       0.77764000
N       -1.81966500      -1.11690300      -0.43035500
N        0.75869200      -1.43570200       1.07987600
H       -4.93653100      -2.09325900      -1.21287300
Cl       2.78852500      -0.28236200       2.33066800
Cl      -3.59825400       0.37674400      -1.70681400
