51
Properties=species:S:1:pos:R:3 pbc="F F F"
Si      -0.21068000       0.13213500       0.82849600
O       -0.95296100       0.98216800      -0.37295100
C       -2.31686600       1.46530100      -0.41058600
C       -3.28684900       0.30518100      -0.45364800
H       -2.50882500       2.07462700       0.47735700
C       -3.12306900      -0.72007200      -1.39628200
C       -4.34827200       0.24133200       0.45520500
C       -4.01039300      -1.79650600      -1.42682600
H       -2.28921800      -0.68039500      -2.09134900
C       -5.24173500      -0.83427400       0.42295900
H       -4.46548200       1.02913900       1.19542600
C       -5.07326900      -1.85506000      -0.51703000
H       -3.87369100      -2.59075500      -2.15623500
H       -6.06054200      -0.87889500       1.13616300
H       -5.76285400      -2.69486500      -0.53826700
C       -2.43360300       2.35386700      -1.66818100
C       -1.55890800       3.52393300      -1.62520700
H       -3.47981300       2.67333800      -1.75275300
H       -2.20883800       1.74213700      -2.55093300
C       -0.83326800       4.49003200      -1.56491600
H       -0.19983300       5.34860900      -1.51899900
Cl      -0.78763500      -1.70426600       1.70701900
Cl      -0.98810800       1.29487800       2.55414900
O        0.57778100      -0.78394900      -0.67347900
O        1.41391000       0.62599200       1.31578900
C        2.77971800      -1.33984800      -0.10440100
C        3.11280900       0.08927700      -0.21624700
C        2.51313400       2.37860700       0.24215700
C        1.17898000      -3.03845100      -0.67476700
C        2.14826000      -4.00657900      -0.40417700
C        3.74418500      -2.30164500       0.16092600
C        3.41662600      -3.65237300       0.04191800
C        4.18381100       0.50861100      -0.99412200
C        4.42280500       1.87331900      -1.16331900
C        3.57667300       2.79604000      -0.56049900
H        4.73709700      -1.97967500       0.45125900
H        4.15513400      -4.41493200       0.26394700
H        4.79357900      -0.23911600      -1.48651400
H        5.25251700       2.20739000      -1.77687700
H        3.72483600       3.86201100      -0.68738800
C        1.57699500       3.30820300       0.93116000
N        1.50969400      -1.73242500      -0.44764300
N        2.33696300       1.03431800       0.39232500
C       -0.15226600      -3.34894800      -1.27291000
H        1.88111300      -5.04493400      -0.56320200
H       -0.22470300      -2.86618900      -2.25541900
H       -0.24917900      -4.42996000      -1.38986900
H       -0.97165100      -2.96430900      -0.66309400
H        0.57335200       3.21105800       0.49800100
H        1.49844000       3.06511900       1.99484300
H        1.92628100       4.33367400       0.80023500
