51
Properties=species:S:1:pos:R:3 pbc="F F F"
Si      -0.12186300      -0.22566800       1.13225400
O       -1.23654900       0.70866500       0.36665100
C       -2.59700200       0.60236800      -0.11482400
C       -2.75292700      -0.49177600      -1.15831800
H       -2.74369200       1.56487200      -0.62071000
C       -1.88584200      -0.47903700      -2.26169900
C       -3.73693700      -1.48370000      -1.08433700
C       -1.98232200      -1.45241400      -3.25671100
H       -1.12796500       0.29568000      -2.33535500
C       -3.84210900      -2.45576200      -2.08422100
H       -4.41892800      -1.51826800      -0.24127500
C       -2.96289000      -2.44743500      -3.16985000
H       -1.29884400      -1.43154800      -4.10179000
H       -4.60797100      -3.22313300      -2.00837100
H       -3.04205500      -3.20630800      -3.94379200
C       -3.59769800       0.54695200       1.05723300
C       -3.42479800       1.66680200       1.97885000
H       -4.60934200       0.57250500       0.63300900
H       -3.49104800      -0.40276100       1.59234700
C       -3.26086000       2.60246200       2.72735800
H       -3.12279700       3.42271100       3.39726500
Cl       0.37002200      -0.10749300       3.18727100
Cl      -1.29371200      -2.07466600       1.37264600
O        0.92705000      -1.13698700       0.01634200
O        1.09788200       1.23161400       0.98974600
C        2.84787600       0.03715800      -0.68685600
C        2.01842200       1.15883900      -1.15484200
C        0.55172600       2.94937200      -0.50430100
C        3.00356400      -2.04457200       0.51483300
C        4.38791100      -2.02268400       0.33846600
C        4.22302000       0.04338900      -0.88110100
C        5.00099000      -0.99536300      -0.36877000
C        2.13903100       1.68470900      -2.43367000
C        1.43723600       2.84427300      -2.76405700
C        0.66894800       3.47655700      -1.79264700
H        4.66909800       0.88121000      -1.40317400
H        6.07635800      -0.98987100      -0.50969800
H        2.77387400       1.17915500      -3.15117000
H        1.50774700       3.25795000      -3.76421200
H        0.14527500       4.40073800      -2.00846300
C       -0.19071300       3.61883600       0.60068000
N        2.28526500      -1.01338300      -0.01600100
N        1.20130900       1.77743700      -0.24617300
C        2.27105200      -3.13143300       1.22224800
H        4.96365300      -2.83792000       0.76079800
H        1.55642300      -3.61103200       0.54465100
H        2.98647600      -3.86705000       1.59286700
H        1.69123000      -2.72201400       2.05648700
H       -0.57419600       4.57745500       0.24606400
H       -1.01438500       2.99378300       0.95644000
H        0.48276000       3.77994400       1.45046800
