51
Properties=species:S:1:pos:R:3 pbc="F F F"
Si       0.19711000      -0.95048700       0.81420000
O       -0.84928700      -1.48141400      -0.34235300
C       -2.27819900      -1.63210200      -0.36404100
C       -2.95014200      -0.29164200      -0.57262500
H       -2.62261000      -2.07480200       0.57437000
C       -2.40322500       0.65471100      -1.45027300
C       -4.14012200       0.00464100       0.10276300
C       -3.03501100       1.88536600      -1.64213900
H       -1.47426400       0.42968000      -1.96646200
C       -4.77581300       1.23428600      -0.09227500
H       -4.55780600      -0.72306900       0.79419100
C       -4.22275300       2.17807000      -0.96308500
H       -2.60049600       2.61612900      -2.31900300
H       -5.69346200       1.45955200       0.44426700
H       -4.71172700       3.13755500      -1.10856900
C       -2.60777700      -2.60048800      -1.52525600
C       -2.05211400      -3.93748200      -1.32675600
H       -3.70034100      -2.65739000      -1.60992500
H       -2.23113900      -2.16412900      -2.45925000
C       -1.58645900      -5.03743500      -1.13601700
H       -1.17938000      -6.01125300      -0.97223600
Cl      -1.12046600      -1.20057500       2.57846200
Cl       1.70165600      -2.21384900       1.60219900
O        1.22095800      -0.52347300      -0.73650300
O        0.49453000       0.70794400       1.40625000
C        2.75852900       1.15033800      -0.19909000
C        1.63434200       2.09775600      -0.12534400
C       -0.55502100       2.65718900       0.71159700
C        3.49185400      -1.00780000      -0.95716400
C        4.81400000      -0.59316600      -0.78633100
C        4.07310500       1.56545700      -0.03362900
C        5.11296000       0.67484600      -0.30081400
C        1.69211300       3.30269500      -0.81381700
C        0.61558200       4.18846700      -0.75707600
C       -0.49912200       3.85757600       0.00129200
H        4.26316200       2.57866400       0.29903600
H        6.14357900       0.98104300      -0.15809400
H        2.57246200       3.51935800      -1.40652000
H        0.65312300       5.12525700      -1.30257000
H       -1.34957700       4.52468500       0.07451300
C       -1.68370700       2.27557600       1.60088600
N        2.50533300      -0.13598500      -0.59422400
N        0.51280300       1.81297400       0.60446500
C        3.10810300      -2.30841600      -1.57802500
H        5.59896900      -1.29112700      -1.05362500
H        2.49283400      -2.12110100      -2.46596600
H        4.01288500      -2.84817900      -1.86366500
H        2.51261900      -2.91804000      -0.89475800
H       -2.14228600       1.34167300       1.26282400
H       -1.31877000       2.10393400       2.61914000
H       -2.43083500       3.06956700       1.59471900
