51
Properties=species:S:1:pos:R:3 pbc="F F F"
Si      -0.39246600      -1.36194900       0.03013400
O        1.16176800      -1.01815300       0.43002800
C        1.91468600      -1.03779700       1.66865900
C        2.08849800       0.40389800       2.11418700
H        1.34268000      -1.57961300       2.42644400
C        3.28804800       1.11203400       1.97490200
C        0.97130600       1.06154700       2.65422200
C        3.36974300       2.45257600       2.36675700
H        4.16825300       0.62761400       1.56462000
C        1.04821300       2.40084100       3.03990100
H        0.03996300       0.51426100       2.77431600
C        2.25086500       3.10129600       2.89550500
H        4.30919400       2.98775700       2.25844500
H        0.17580100       2.89400400       3.46020000
H        2.31701800       4.14228000       3.19977300
C        3.22657700      -1.79573100       1.40278000
C        2.99748800      -3.19853000       1.06628500
H        3.84959700      -1.72257000       2.30307700
H        3.77133200      -1.30420800       0.58737000
C        2.78253600      -4.35515200       0.78816600
H        2.59371300      -5.37730700       0.54262500
Cl      -0.93192900      -2.83217400      -1.36159100
Cl      -1.01036400      -2.47996000       1.79211700
O       -1.55926300      -0.10434000       0.58214700
O       -0.12167000      -0.26405000      -1.56750200
C       -1.50720900       1.88898000      -0.68546400
C       -0.03520500       1.90532700      -0.72988800
C        1.90696100       0.89978700      -1.66889500
C       -3.56039800       0.77551400      -0.19432400
C       -4.27642300       1.81490700      -0.76631900
C       -2.21656800       2.95145900      -1.24291700
C       -3.60497200       2.92191600      -1.28434800
C        0.70335000       3.02169800      -0.34833800
C        2.06975000       3.05545800      -0.59856800
C        2.66086500       2.00222800      -1.29880000
H       -1.65630500       3.77657300      -1.66605500
H       -4.15941500       3.74258600      -1.72502800
H        0.19498100       3.84244100       0.14246800
H        2.66493000       3.90378600      -0.28459400
H        3.70994400       2.03230400      -1.56209400
N       -2.19692400       0.83630800      -0.15826900
N        0.58895400       0.84901600      -1.32570500
H       -5.35649200       1.75478800      -0.79022600
C       -4.26117100      -0.43217400       0.45102000
C        2.46564200      -0.21077200      -2.57412500
F        1.76619200      -0.23644300      -3.73423700
F        3.75468900       0.06718400      -2.87850700
F        2.43207100      -1.43484000      -2.03112100
F       -3.82808600      -1.59248500      -0.07688200
F       -5.59093200      -0.35261900       0.23469900
F       -4.06038400      -0.45101000       1.78336800
