51
Properties=species:S:1:pos:R:3 pbc="F F F"
Si       0.03032100      -0.48127100       1.14319300
O        0.79854800      -1.45845900       0.08522200
C        1.68361100      -1.28283100      -1.04338300
C        3.11323300      -1.56361600      -0.63430900
H        1.61072000      -0.26592600      -1.43057000
C        3.42483900      -2.55731000       0.30241600
C        4.14742500      -0.84638300      -1.24811200
C        4.75811200      -2.82630200       0.62256500
H        2.62307400      -3.10473300       0.78860600
C        5.48136300      -1.11897000      -0.93298500
H        3.90604400      -0.06825500      -1.96853600
C        5.78919700      -2.11022100       0.00435300
H        4.99236700      -3.59411300       1.35535800
H        6.27679500      -0.55315900      -1.41097300
H        6.82558200      -2.31949500       0.25608900
C        1.21452300      -2.26483900      -2.14327300
C       -0.08921900      -1.92045200      -2.70788400
H        1.19484700      -3.27609200      -1.71752300
H        1.97123200      -2.26077900      -2.93781200
C       -1.15993500      -1.61666700      -3.18199900
H       -2.10225300      -1.36611300      -3.61685400
Cl       0.92234200       0.90483700       2.45706400
Cl      -0.22338400      -2.02292700       2.64033500
O        0.02299300       0.88391700      -0.32204100
O       -1.75211700      -0.26578600       1.16827500
C       -1.67775600       2.38304500       0.15956900
C       -2.63675500       1.35983300      -0.29216400
C       -3.37634400      -0.90789100      -0.37199100
C        0.58359300       3.12361600       0.02137700
C        0.19896400       4.38981700       0.43739100
C       -2.08225100       3.64671500       0.57890800
C       -1.13314700       4.64662500       0.76488000
C       -3.62295400       1.71576100      -1.21022300
C       -4.48608000       0.75271000      -1.71847000
C       -4.34782300      -0.56993400      -1.30143700
H       -3.13732600       3.82673600       0.74849400
H       -1.42979600       5.62751800       1.11811600
H       -3.67510100       2.74841500      -1.53415500
H       -5.24956000       1.02382700      -2.43875000
H       -4.99737500      -1.34679700      -1.68251400
N       -0.34782100       2.12624200      -0.03604300
N       -2.54981500       0.06138900       0.11884700
H        0.94592400       5.17125200       0.49172000
C        1.98795000       2.83501200      -0.53699400
C       -3.24367500      -2.34300100       0.16833200
F       -3.55438400      -2.39132700       1.47860000
F       -4.10003600      -3.15390600      -0.48897400
F       -2.00266000      -2.82474300      -0.01195500
F        2.66652300       1.88939300       0.12845700
F        2.72388800       3.96615600      -0.51077600
F        1.87832200       2.44375400      -1.83222500
