51
Properties=species:S:1:pos:R:3 pbc="F F F"
Si      -0.24838200      -1.35411300      -0.27869200
O        1.29592200      -1.12053800       0.19103300
C        2.18383800      -1.03728500       1.32687400
C        1.89697500       0.20197200       2.14819200
H        3.17245900      -0.93277000       0.86912600
C        0.64658800       0.40156600       2.75039800
C        2.89836000       1.16468300       2.31872000
C        0.39566000       1.56185000       3.48613300
H       -0.13020300      -0.34865100       2.64499000
C        2.65491000       2.31999400       3.06800600
H        3.87201800       1.00975000       1.85981200
C        1.39849900       2.52548300       3.64461400
H       -0.57863000       1.70906000       3.94450000
H        3.44181300       3.05870400       3.19384700
H        1.20380500       3.42525600       4.22182700
C        2.21137300      -2.31390800       2.19664300
C        2.52661200      -3.51544500       1.43006200
H        1.25714100      -2.43013400       2.71845600
H        2.98131800      -2.14491500       2.96101300
C        2.79228600      -4.49209800       0.76838800
H        3.01817600      -5.36164700       0.19075500
Cl      -0.67543300      -2.58516300      -1.91944200
Cl      -0.97199800      -2.74094400       1.23054400
O       -1.44586400      -0.20422000       0.42180000
O        0.03745500       0.01094300      -1.67780600
C       -1.38732000       1.97944100      -0.48250400
C        0.08416400       2.01577500      -0.49798500
C        2.05409100       1.19150300      -1.55112700
C       -3.43727900       0.78332200      -0.22879900
C       -4.15491300       1.90172700      -0.62055000
C       -2.09936700       3.11767200      -0.85929300
C       -3.48638000       3.08688300      -0.92606600
C        0.80037100       3.07041900       0.05981300
C        2.16881000       3.16057600      -0.16190100
C        2.78488400       2.23603300      -1.00725400
H       -1.54196200       4.00742800      -1.12615600
H       -4.04196800       3.96833700      -1.22538100
H        0.27423500       3.79579000       0.66791100
H        2.74647600       3.95904600       0.28760800
H        3.83568000       2.32165500      -1.25065000
N       -2.07458500       0.84605500      -0.15819100
N        0.73131400       1.07007700      -1.24223600
H       -5.23379700       1.83910300      -0.67322800
C       -4.13539300      -0.52714900       0.17288900
C        2.64651000       0.24234800      -2.60756600
F        2.63915700      -1.04844000      -2.25080000
F        1.95864800       0.37282300      -3.76659700
F        3.93088800       0.59246700      -2.85203400
F       -3.68390000      -1.56505200      -0.55673300
F       -5.46279800      -0.41770400      -0.04549200
F       -3.95419000      -0.79289400       1.48112100
