51
Properties=species:S:1:pos:R:3 pbc="F F F"
Si       0.99971400       0.19094100      -1.25777100
O        2.42109500       0.95646100      -1.14125900
C        2.63099000       2.27021500      -0.50348700
C        2.16535400       2.25306400       0.93328700
H        2.05742000       3.00568100      -1.07505700
C        2.68129300       1.31433400       1.83844900
C        1.20185800       3.17133500       1.36668100
C        2.23206000       1.29107400       3.15883400
H        3.41593100       0.58927700       1.50199900
C        0.76069900       3.15768500       2.69296700
H        0.79595700       3.89394300       0.66328700
C        1.27126800       2.21446800       3.58944700
H        2.63081900       0.55558600       3.85215400
H        0.01795500       3.87910700       3.02219800
H        0.92391100       2.19812200       4.61898700
C        4.13344900       2.57998700      -0.62917600
C        4.59072900       2.68040400      -2.01351500
H        4.69750800       1.80579900      -0.09426200
H        4.31175300       3.52787900      -0.10562100
C        4.95150200       2.76775100      -3.16420100
H        5.27757900       2.84423600      -4.17857000
Cl       0.99584300      -1.20344300      -2.75028900
Cl      -0.58205400       1.47795900      -1.49864600
O        0.84041500      -0.64330100       0.26240600
O       -3.31753600      -1.23160000      -0.95884500
C       -1.15846200      -1.88456800       0.52923800
C       -1.88426600      -0.62727200       0.75423200
C       -3.79680300       0.69335800       0.24424900
C        0.98322700      -2.97720700       0.41639500
C        0.37002700      -4.21389200       0.46442000
C       -1.78001100      -3.13550200       0.56763000
C       -1.02624700      -4.29744500       0.50793700
C       -1.51541700       0.27277900       1.75031400
C       -2.29144300       1.39474700       2.00316900
C       -3.43962000       1.59367600       1.23642300
H       -2.85750300      -3.16252400       0.66423500
H       -1.51099100      -5.26671200       0.54090600
H       -0.61474300       0.08082800       2.32181300
H       -2.00883100       2.09869400       2.77565700
H       -4.07059000       2.45873900       1.39941700
N        0.19990400      -1.85488000       0.37521800
N       -3.02313100      -0.42535800      -0.02013200
H        0.98527500      -5.10361700       0.49046500
C        2.50670800      -2.81581300       0.53995000
C       -5.03044600       0.88554900      -0.62776400
F       -4.70823500       1.03605700      -1.93458600
F       -5.89279900      -0.15346600      -0.52260600
F       -5.70270500       2.00169600      -0.25109500
F        3.05946900      -2.17499000      -0.50875900
F        3.08690600      -4.02658400       0.63288800
F        2.80072500      -2.12361700       1.66484800
