51
Properties=species:S:1:pos:R:3 pbc="F F F"
Si      -0.42902900      -0.83884800      -0.12408800
O       -1.89054800      -1.37234700       0.29856100
C       -3.05955600      -1.69451500      -0.52214900
C       -4.29582000      -1.14478300       0.14475900
H       -2.93429500      -1.24104600      -1.51005700
C       -4.53083900      -1.35662600       1.51004800
C       -5.24282700      -0.45510600      -0.62005300
C       -5.69883800      -0.87408600       2.10341400
H       -3.79369100      -1.88524100       2.10785000
C       -6.41691800       0.02041000      -0.02883900
H       -5.05677600      -0.28471400      -1.67773300
C       -6.64547900      -0.18671200       1.33464100
H       -5.87198400      -1.03524200       3.16410700
H       -7.14604900       0.55706900      -0.62982400
H       -7.55463300       0.18740700       1.79773100
C       -3.12378200      -3.23015400      -0.67263400
C       -1.94930900      -3.77203900      -1.35052200
H       -4.03508500      -3.46928600      -1.23478600
H       -3.23126400      -3.67265400       0.32542400
C       -0.94998800      -4.16280200      -1.90797000
H       -0.07256800      -4.52073400      -2.40085600
Cl      -0.11353400      -0.45729300      -2.11006100
Cl       1.01782100      -2.06101100       0.65238800
O       -0.28735400       0.68316200       0.72790700
O        3.55702400       0.67958400      -1.17486800
C        1.58710500       1.98322900       0.11097700
C        2.45491900       1.03423300       0.82625600
C        4.37877200      -0.35951900       0.73238200
C       -0.64776600       2.74418700      -0.33506500
C       -0.15245700       3.87597100      -0.95400000
C        2.09002100       3.11496200      -0.53337700
C        1.22890600       4.05678700      -1.07521500
C        2.33158000       0.79708600       2.19073600
C        3.24342500      -0.02260600       2.84282900
C        4.26754400      -0.60119400       2.09303700
H        3.16476300       3.23728600      -0.57640100
H        1.62062600       4.94038700      -1.56640800
H        1.51592100       1.26859500       2.72671900
H        3.16101400      -0.21045400       3.90654200
H        4.99353100      -1.25402100       2.56145400
N        0.23226400       1.80916600       0.13979100
N        3.47718700       0.46323500       0.07666100
H       -0.84928300       4.61204900      -1.33286400
C       -2.15353100       2.51223100      -0.14917700
C        5.47224200      -0.98573400      -0.12251300
F        6.25521800      -0.04993000      -0.71064400
F        6.28125100      -1.75961300       0.64308500
F        4.96261300      -1.78006200      -1.09396100
F       -2.56539700       1.43093900      -0.85058800
F       -2.84246900       3.57675700      -0.59950500
F       -2.46902400       2.33038800       1.14754700
