63
Properties=species:S:1:pos:R:3 pbc="F F F"
Si      -0.08247100      -0.56339600       0.39244700
O        1.57264700      -0.75374800       0.21398200
C        2.45604700      -1.83211800      -0.08720400
C        3.73075200      -1.24133000      -0.65786200
H        1.99981300      -2.49249100      -0.83295400
C        4.41585700      -0.22854300       0.02822900
C        4.24792100      -1.71900600      -1.86646900
C        5.59721700       0.30268300      -0.49184200
H        4.01329600       0.14955600       0.96381000
C        5.43418300      -1.19163900      -2.38864600
H        3.71659800      -2.50291400      -2.40158700
C        6.10986000      -0.17833700      -1.70287000
H        6.11847100       1.09143200       0.04482300
H        5.82542000      -1.56744200      -3.33056000
H        7.02896200       0.23611200      -2.10886200
C        2.77426600      -2.66550300       1.18466100
C        1.64047500      -3.44358200       1.67466300
H        3.60418300      -3.34178800       0.94214400
H        3.13163100      -1.97901100       1.96241800
C        0.69462300      -4.09438800       2.05504000
H       -0.14606900      -4.65836600       2.39470700
Cl      -0.01574600      -0.37529500       2.51558700
Cl      -0.68525100      -2.16325500      -0.88607100
O        0.00780300       0.93898400      -0.55227200
O       -1.94632900      -0.13709500       0.73871200
C       -1.85267700       2.34056000      -0.34336400
C       -2.70179300       1.29352200      -0.93853500
C       -3.70300600      -0.87346700      -0.63764100
C        0.31121200       3.00043900       0.50187800
C       -0.23495200       4.23906500       0.84626000
C       -2.38139000       3.58217400      -0.01990300
C       -1.56480900       4.54081900       0.58002900
C       -3.52777100       1.55745900      -2.02053200
C       -4.43365300       0.58338200      -2.44165900
C       -4.52783400      -0.60826100      -1.73380400
H       -3.43049900       3.76873700      -0.21419600
H       -1.97075200       5.51090600       0.84627900
H       -3.45062800       2.51736500      -2.51674200
H       -5.07421700       0.76694200      -3.29752600
H       -5.25620800      -1.35903300      -2.01294700
C       -3.87815400      -2.06956400       0.26378400
N       -0.53250600       2.09981700      -0.08631600
N       -2.77470300       0.07570800      -0.31133700
C        1.76450400       2.63772200       0.66717800
H        0.41141900       4.96756100       1.31850600
C        2.49533700       2.84664700      -0.68205500
C        2.44702200       3.42559600       1.79361900
H        1.81941500       1.57430300       0.90880200
H        3.53562500       2.52788800      -0.56670900
H        2.03888800       2.25057300      -1.47656500
H        2.47572500       3.90560300      -0.96359100
H        3.45949900       3.03067500       1.92209500
H        2.53336700       4.49021600       1.54887100
H        1.90885000       3.32044700       2.74170300
C       -4.34376400      -3.32218100      -0.49137100
H       -2.92039200      -2.28290400       0.73559100
C       -4.88040100      -1.67882800       1.37779400
H       -3.66487400      -3.56526700      -1.31508200
H       -4.35907600      -4.16308400       0.20906000
H       -5.35782000      -3.20222000      -0.88880300
H       -5.86245700      -1.45141400       0.94726400
H       -4.98680900      -2.52382600       2.06637500
H       -4.52674600      -0.80938400       1.94159000
