63
Properties=species:S:1:pos:R:3 pbc="F F F"
Si      -0.24602900      -0.81023400       0.13174800
O        1.22078600      -1.44509200      -0.37881900
C        2.46648400      -1.72617400       0.25455000
C        3.60293300      -0.97601200      -0.41374600
H        2.43472200      -1.45489500       1.31486000
C        3.63230600      -0.78724900      -1.80093700
C        4.68200800      -0.53313100       0.36074100
C        4.72719800      -0.16375800      -2.40411300
H        2.79049200      -1.12016700      -2.40067600
C        5.77959100       0.08980300      -0.24031900
H        4.65936800      -0.67487900       1.43904900
C        5.80475400       0.27442800      -1.62638700
H        4.73906200      -0.01668600      -3.48098800
H        6.60802200       0.43589600       0.37215600
H        6.65473400       0.76195500      -2.09629300
C        2.73037600      -3.25415900       0.14899500
C        1.72917100      -4.06708000       0.83410700
H        3.72597500      -3.45636900       0.56400800
H        2.76274000      -3.51541700      -0.91673700
C        0.89337400      -4.73135400       1.40283300
H        0.15449900      -5.31565900       1.90591200
Cl       0.03779000      -0.97834100       2.23815300
Cl      -1.27192400      -2.02757100      -1.29409400
O        0.08158100       0.78349500      -0.59822900
O       -1.93755900      -0.10696300       0.75099000
C       -1.50639800       2.42922900      -0.06518300
C       -2.57459400       1.62011200      -0.67720300
C       -3.93385300      -0.35491000      -0.46538300
C        0.78374400       2.61749700       0.66590600
C        0.48124600       3.87269100       1.19875000
C       -1.79160100       3.68922100       0.44177100
C       -0.78907900       4.41961800       1.07960900
C       -3.43475500       2.14701100      -1.62899900
C       -4.54334300       1.40227700      -2.03131000
C       -4.79498700       0.17554100      -1.42922300
H       -2.80386000       4.06516700       0.35786400
H       -1.00577100       5.40053800       1.48874000
H       -3.22749800       3.12895000      -2.03670600
H       -5.21616300       1.79023600      -2.78847200
H       -5.67533600      -0.39529900      -1.69621500
C       -4.22819700      -1.60047500       0.33133200
N       -0.23205700       1.94557700       0.04609300
N       -2.81573300       0.37243400      -0.16387300
C        2.16868900       2.03067600       0.65035900
H        1.27252400       4.41721000       1.69799000
C        2.86213500       2.45670700      -0.66524600
C        3.00202500       2.43091100       1.87487700
H        2.07937400       0.94463600       0.63890500
H        3.84364100       1.97846400      -0.71050100
H        2.28230100       2.14258200      -1.53756200
H        2.98842000       3.54529800      -0.68778900
H        3.94939800       1.88562000       1.83060300
H        3.23318900       3.50152100       1.87635500
H        2.49177600       2.17427100       2.80914600
C       -5.09240000      -2.61040100      -0.43469400
H       -3.27843100      -2.07438000       0.57698200
C       -4.90410200      -1.17197600       1.65727500
H       -4.64260300      -2.86903000      -1.39901700
H       -5.17581900      -3.52082400       0.16678800
H       -6.10572500      -2.22910100      -0.60445400
H       -5.86612100      -0.68617300       1.45801700
H       -5.08260500      -2.06571800       2.26453100
H       -4.26589100      -0.48582800       2.22278200
