63
Properties=species:S:1:pos:R:3 pbc="F F F"
Si       0.17282000      -0.63508000      -0.39309600
O        1.30274100       0.39364900       0.21904900
C        2.46593200       0.31857900       1.07360900
C        3.55076500      -0.56667100       0.48029900
H        2.83856000       1.34991400       1.05936300
C        3.87483600      -0.39240800      -0.87393200
C        4.26487900      -1.50820100       1.23002600
C        4.87829600      -1.15499500      -1.47158700
H        3.32693400       0.33652900      -1.46427700
C        5.27624400      -2.26953400       0.63490500
H        4.03137600      -1.66921600       2.27735300
C        5.58438900      -2.09869700      -0.71684100
H        5.11070800      -1.01210500      -2.52370600
H        5.81634000      -3.00169900       1.22945200
H        6.36665900      -2.69477900      -1.17923500
C        2.07897800       0.00417300       2.53347700
C        1.06635300       0.91951900       3.05370300
H        2.98851100       0.08904000       3.14145300
H        1.72774000      -1.02992700       2.61193100
C        0.22880800       1.67986100       3.48163500
H       -0.50610100       2.34697700       3.87430700
Cl       0.18859200      -1.40784700      -2.36292100
Cl       0.87749000      -2.52444300       0.50690400
O       -1.28756600      -0.80297600       0.61386200
O       -0.64730900       0.86141400      -1.21985200
C       -2.98167500       0.75078200       0.11202100
C       -2.04959500       1.86599600       0.34241100
C       -0.05150700       2.98337100      -0.39550800
C       -3.34559400      -1.62307700      -0.12342200
C       -4.68145300      -1.35791300      -0.43336400
C       -4.31589700       1.00273300      -0.17593500
C       -5.17633900      -0.06036000      -0.44602700
C       -2.37045500       2.92492400       1.17862500
C       -1.51297200       4.02215300       1.24627600
C       -0.37454700       4.04686800       0.45087700
H       -4.65212400       2.03156900      -0.21411400
H       -6.21880700       0.12766400      -0.67946000
H       -3.27932600       2.87115700       1.76571900
H       -1.74069300       4.85328200       1.90497600
H        0.28831600       4.90287000       0.46728300
C        1.09750600       3.01675100      -1.37000700
N       -2.54821100      -0.54666100       0.15098000
N       -0.89770000       1.91202000      -0.39622400
C       -2.76762800      -3.00982900      -0.01609800
H       -5.32781400      -2.19694800      -0.65604600
C       -2.75608500      -3.44817000       1.46849200
C       -3.51590900      -4.03111200      -0.88507100
H       -1.73084300      -2.96444300      -0.35632700
H       -2.28908400      -4.43602400       1.53505800
H       -2.18521900      -2.74996700       2.08560900
H       -3.78150400      -3.51735800       1.84918000
H       -2.95934300      -4.97286200      -0.85973900
H       -4.52292500      -4.22801000      -0.50025800
H       -3.59076200      -3.69785400      -1.92555400
C        2.31175900       3.78186400      -0.82291100
H        1.39631800       1.98939500      -1.56727700
C        0.59142200       3.63289700      -2.69608200
H        2.61968900       3.39474500       0.15378300
H        3.14334000       3.66174500      -1.52409400
H        2.10802100       4.85405600      -0.72647600
H        0.26662300       4.66779400      -2.53958400
H        1.41090600       3.62859000      -3.42275200
H       -0.24298100       3.05468600      -3.10613800
