63
Properties=species:S:1:pos:R:3 pbc="F F F"
Si      -0.12478700      -0.89376100      -0.37758200
O        1.25839500      -0.20644500       0.20124500
C        2.22451800      -0.61165100       1.17925000
C        3.50941800      -1.08977200       0.53112500
H        1.81575100      -1.41492900       1.79797100
C        3.80949300      -0.84952600      -0.81375400
C        4.44100400      -1.77388400       1.32595000
C        5.02611300      -1.27811300      -1.35506300
H        3.08892400      -0.34149700      -1.44472800
C        5.65698200      -2.19977500       0.78849400
H        4.20937100      -1.98004900       2.36885100
C        5.95494300      -1.94981400      -0.55610300
H        5.24412700      -1.08804100      -2.40287000
H        6.36753500      -2.73206600       1.41543400
H        6.89946000      -2.28341800      -0.97759300
C        2.48418100       0.61286400       2.09341000
C        1.29654500       1.01021500       2.84518600
H        3.29435800       0.35129100       2.78430300
H        2.84416300       1.44348500       1.47427000
C        0.29804800       1.30218700       3.46185300
H       -0.57557100       1.56685900       4.01565300
Cl      -0.32557100      -1.66545200      -2.33461600
Cl       0.10245200      -2.89389800       0.54541900
O       -1.55997700      -0.68521500       0.64897100
O       -0.53978100       0.75331800      -1.20594000
C       -2.79360900       1.26504900       0.18935200
C       -1.59391100       2.09569700       0.38251100
C        0.58617000       2.67526500      -0.45711500
C       -3.76989100      -0.92770900      -0.06237400
C       -4.99834100      -0.31919700      -0.32904500
C       -4.02381800       1.86010800      -0.05507600
C       -5.13912800       1.06211300      -0.30736300
C       -1.59914900       3.20461500       1.21592500
C       -0.48797800       4.04460100       1.23865500
C        0.58278700       3.78351000       0.39238500
H       -4.08257400       2.94144800      -0.07796000
H       -6.10264300       1.51957100      -0.50465000
H       -2.46663200       3.38726100       1.83830800
H       -0.46686700       4.90362900       1.90042400
H        1.43999500       4.44444900       0.37348500
C        1.63576500       2.41425400      -1.50595900
N       -2.71549700      -0.10100500       0.20820000
N       -0.49637600       1.84310700      -0.39571200
C       -3.56882500      -2.41907000       0.00477300
H       -5.84486400      -0.95809200      -0.54467600
C       -3.67421600      -2.88258700       1.47791700
C       -4.55404300      -3.18549200      -0.89031200
H       -2.55504000      -2.63452200      -0.33995700
H       -3.48660600      -3.96029400       1.51850400
H       -2.93806500      -2.37575700       2.10713700
H       -4.68072900      -2.68543200       1.86395900
H       -4.26700900      -4.24141300      -0.88798000
H       -5.58067000      -3.11708800      -0.51349300
H       -4.52818800      -2.81901000      -1.92204400
C        2.99333300       3.04612500      -1.17527800
H        1.75949400       1.33502900      -1.58109600
C        1.10201800       2.92905600      -2.86561600
H        3.36093100       2.73187200      -0.19323800
H        3.71756700       2.72583600      -1.93038600
H        2.94562200       4.14066600      -1.19957200
H        0.95574500       4.01459900      -2.83138300
H        1.83974000       2.69940500      -3.64148900
H        0.15629100       2.44543000      -3.12666800
