69
Properties=species:S:1:pos:R:3 pbc="F F F"
Si       0.22391700      -1.39037900      -0.06102400
O       -1.25196500      -0.92633700      -0.63290200
C       -1.77639800      -0.71137800      -1.96555500
C       -1.59442700       0.75457000      -2.32227900
H       -1.20761100      -1.31846700      -2.67425200
C       -2.63308200       1.69185500      -2.28416200
C       -0.30714500       1.18585200      -2.68010100
C       -2.39003100       3.03474100      -2.59201200
H       -3.63947400       1.38726900      -2.01559900
C       -0.05818700       2.52748200      -2.97312900
H        0.50030800       0.46122100      -2.73027200
C       -1.10210000       3.45805600      -2.92969100
H       -3.20883000       3.74870900      -2.56485700
H        0.94499500       2.84391300      -3.24678500
H       -0.91460200       4.50214700      -3.16548800
C       -3.23710500      -1.19453200      -1.96966100
C       -3.34935400      -2.63223000      -1.73887900
H       -3.67740100      -0.93509500      -2.94055500
H       -3.80185900      -0.65046300      -1.20226700
C       -3.41890600      -3.82308500      -1.54260500
H       -3.48095300      -4.87529700      -1.37024800
Cl       0.53393400      -3.06730300       1.19390600
Cl       0.92354500      -2.46633000      -1.87338000
O        1.55855200      -0.26411100      -0.40277700
O       -0.14865700      -0.49863700       1.55646000
C        1.44022600       1.61329000       1.01613000
C       -0.02936400       1.71301100       0.89528100
C       -2.12335600       0.80896700       1.67895300
C        3.55253000       0.53738600       0.52940100
C        4.16938900       1.51618400       1.31721200
C        2.07946400       2.58738600       1.77129300
C        3.45772500       2.53312900       1.93607300
C       -0.63097100       2.89830700       0.50628800
C       -2.00864900       3.02292500       0.65024100
C       -2.72335100       2.00582300       1.27237200
H        1.47722300       3.35766100       2.23697900
H        3.97097600       3.27615300       2.53679100
H       -0.02050600       3.69327700       0.09788000
H       -2.51463000       3.92187600       0.31865300
H       -3.78080200       2.13720700       1.45032600
C       -2.85061400      -0.24498900       2.52475100
N        2.17904500       0.61342400       0.43946500
N       -0.79070700       0.68752100       1.38146100
C        4.36383500      -0.52358900      -0.22578200
H        5.24227900       1.48048100       1.43104600
C        5.87447200      -0.32889900       0.03776400
C        4.00164400      -1.94744800       0.25832700
C        4.15296700      -0.37885500      -1.75664100
H        6.40508600      -1.09986100      -0.52762000
H        6.22902800       0.64861400      -0.30696900
H        6.12575800      -0.45354100       1.09680000
H        4.69733400      -2.64816500      -0.21562500
H        4.11843500      -2.02715400       1.34467300
H        2.99337100      -2.24145600      -0.02010500
C       -2.08477100      -0.40004900       3.86601600
C       -4.27620900       0.24489200       2.86004700
C       -2.99074700      -1.61942200       1.83488600
H       -2.01037300       0.56381500       4.38240600
H       -2.65455700      -1.08765900       4.50012400
H       -1.08492800      -0.81093200       3.71802800
H       -2.03069500      -2.10483900       1.68095700
H       -3.59637500      -2.25428300       2.49124200
H       -3.49951000      -1.53039500       0.87306100
H        4.83728900      -1.07691000      -2.25091200
H        3.13651700      -0.61810900      -2.06428100
H        4.40559000       0.63702500      -2.08200300
H       -4.26631500       1.20377900       3.38971500
H       -4.89563400       0.33707400       1.96102300
H       -4.73781600      -0.50076400       3.51358000
