69
Properties=species:S:1:pos:R:3 pbc="F F F"
Si       0.23908300      -0.38585100       1.01479500
O       -0.55589400      -1.42789600       0.02391200
C       -1.55123000      -2.45068200       0.20048300
C       -2.72256200      -2.17053300      -0.71498900
H       -1.89329300      -2.46956300       1.23795500
C       -2.51836200      -1.79338400      -2.04892800
C       -4.02798400      -2.30843600      -0.23292600
C       -3.60862100      -1.54604500      -2.88529800
H       -1.50453300      -1.67480300      -2.42103600
C       -5.12169100      -2.06857700      -1.07013900
H       -4.18717300      -2.58852000       0.80582000
C       -4.91400100      -1.68348900      -2.39786700
H       -3.44204300      -1.24639600      -3.91692500
H       -6.13206900      -2.17154500      -0.68309900
H       -5.76234200      -1.48868000      -3.04874900
C       -0.89897300      -3.81361400      -0.13802200
C        0.17184000      -4.17227400       0.78748000
H       -1.68699200      -4.57696000      -0.11696600
H       -0.51662000      -3.76806000      -1.16580100
C        1.05259100      -4.43440600       1.57331600
H        1.83247400      -4.66222900       2.26613700
Cl      -0.95039600      -0.69557600       2.86690400
Cl       2.04653400      -0.82662100       2.04841200
O        1.15225600       0.02993300      -0.57663800
O       -0.22918500       1.33240200       1.17935100
C        2.13914500       2.07533600      -0.19787700
C        0.81607700       2.68265800      -0.44440600
C       -1.56474800       2.83864500      -0.04290400
C        3.51407200       0.13861900      -0.62081600
C        4.62644700       0.94825100      -0.33740700
C        3.24258600       2.85816400       0.08870700
C        4.50789400       2.27102500       0.05540200
C        0.75852700       3.72121700      -1.36367300
C       -0.46298200       4.31791700      -1.64810500
C       -1.59793000       3.86960200      -0.99017600
H        3.10047300       3.90757900       0.31703700
H        5.39072500       2.85322200       0.29609000
H        1.67299300       4.02598300      -1.85742400
H       -0.52942400       5.12203300      -2.37302300
H       -2.54621100       4.33911200      -1.20273200
C       -2.82509800       2.40923900       0.71934800
N        2.29560300       0.73778500      -0.46677700
N       -0.33226600       2.25994200       0.17592500
C        3.74672300      -1.28117500      -1.16918300
H        5.60793100       0.50465000      -0.43545300
C        4.47767200      -1.07642100      -2.52818700
C        4.67858800      -2.05575000      -0.20362700
C        2.51408500      -2.16630800      -1.43823500
H        4.69327100      -2.06494000      -2.94732800
H        3.84187100      -0.52817100      -3.23220600
H        5.42299600      -0.53808400      -2.40997800
H        5.63493900      -1.54972000      -0.04293600
H        4.18881400      -2.20977100       0.76126700
H        4.88697900      -3.03317200      -0.65111800
C       -3.18464800       0.94355900       0.38669900
C       -2.64603700       2.62048400       2.24542900
C       -4.03428800       3.27103200       0.28881500
H       -2.45583200       0.23480900       0.76470500
H       -4.14387100       0.71469700       0.86185900
H       -3.29390000       0.80314500      -0.69289600
H       -4.26883600       3.14618300      -0.77395700
H       -4.89765500       2.92936700       0.86630400
H       -3.87971500       4.33354400       0.50613700
H        2.89294900      -3.10418000      -1.86013800
H        1.96569300      -2.40190300      -0.52665900
H        1.83170300      -1.71445700      -2.16033700
H       -1.88118200       1.97471300       2.67220100
H       -2.40395700       3.66826000       2.45732100
H       -3.60299700       2.38557600       2.72391600
