49
Properties=species:S:1:pos:R:3 pbc="F F F"
Si       0.11353900      -1.38153500       0.28681300
O       -1.42188500      -0.78564700       0.21652300
C       -2.39251400      -0.76299000      -0.86273100
C       -2.04207500       0.35085700      -1.82616400
H       -2.37141000      -1.72082300      -1.38746200
C       -2.13819200       1.69508100      -1.43930100
C       -1.56529200       0.04419200      -3.10613000
C       -1.75314500       2.71516800      -2.30990200
H       -2.51599400       1.94640700      -0.45382700
C       -1.18392500       1.06350400      -3.98429700
H       -1.48003700      -0.99650400      -3.40512700
C       -1.27237000       2.40072500      -3.58634800
H       -1.83132900       3.75308300      -1.99670500
H       -0.81504600       0.81330500      -4.97550800
H       -0.97369400       3.19358500      -4.26707100
C       -3.78221700      -0.58286900      -0.21684400
C       -4.15478000      -1.69550800       0.65310000
H       -4.51213400      -0.48217900      -1.03007400
H       -3.80094300       0.35433800       0.35186400
C       -4.44715700      -2.62647300       1.36774500
H       -4.70800900      -3.44884100       1.99739700
Cl       0.76100900      -2.82784200       1.67739700
Cl       0.02111900      -2.79295400      -1.39273000
O        1.31961600      -0.44645000      -0.65215300
O        0.43603900      -0.17024500       1.73891700
C        2.31379600       1.34960600       0.51863800
C        0.99702400       1.91396400       0.85295800
C       -1.07300800       1.60096800       2.02482000
C        3.62736800      -0.46498300      -0.35723200
C        4.79817300       0.20821600       0.01441100
C        3.47770500       2.02498600       0.87264300
C        4.72598200       1.45788300       0.61457400
C        0.69806800       3.25624400       0.64796900
C       -0.49971100       3.78050000       1.13338200
C       -1.37328400       2.95680300       1.83111600
H        3.38747300       2.97778800       1.37990500
H        5.63148500       1.98349000       0.89685600
H        1.40911000       3.87286800       0.11192300
H       -0.74278800       4.82494400       0.97361500
H       -2.30359100       3.33223500       2.23999300
C       -1.91261300       0.72888900       2.74811300
N        2.41691000       0.14002000      -0.10757000
N        0.10559100       1.11424200       1.51130600
C        3.63704100      -1.72167500      -0.99431000
H        5.74622100      -0.27439400      -0.18932400
C        3.70119200      -2.80442400      -1.52920100
H        3.73605100      -3.76403800      -2.00004700
C       -2.67353800       0.03799800       3.38561700
H       -3.34391000      -0.59131000       3.93067000
