49
Properties=species:S:1:pos:R:3 pbc="F F F"
Si      -0.03842300      -0.52772300       0.39814100
O        1.60581300      -0.33343600       0.17549000
C        2.67848500      -1.22044700      -0.16214800
C        3.81717600      -0.37022700      -0.69148900
H        2.35306200      -1.91092600      -0.94772800
C        4.46573600       0.55451400       0.14005300
C        4.23262400      -0.49905900      -2.02088900
C        5.50976000       1.33984300      -0.35173500
H        4.14853400       0.65853200       1.17411500
C        5.28033300       0.28478800      -2.51763400
H        3.73163000      -1.21471000      -2.66902900
C        5.91965000       1.20679200      -1.68438900
H        6.00616800       2.05288200       0.30186200
H        5.59380500       0.17606900      -3.55271500
H        6.73290900       1.81717900      -2.06820200
C        3.13621500      -2.04839300       1.06915700
C        2.18632200      -3.07855300       1.47803300
H        4.09524300      -2.51868200       0.81640600
H        3.32323300      -1.35792600       1.90050400
C        1.40023100      -3.94084200       1.79587000
H        0.69352400      -4.68999300       2.07766600
Cl      -0.00597000      -0.46349600       2.51507700
Cl      -0.34748200      -2.14124200      -0.94951400
O       -0.34525900       1.01125900      -0.44532500
O       -2.00991600      -0.55022600       0.77922700
C       -2.49389500       1.93302000      -0.19461800
C       -3.09955100       0.74702100      -0.82187100
C       -3.58006100      -1.59182200      -0.61510200
C       -0.54817600       3.03582200       0.69125900
C       -1.34667500       4.11712100       1.08515300
C       -3.28246000       3.01918700       0.17100600
C       -2.70892800       4.11555400       0.81608300
C       -3.99390500       0.85617300      -1.87966100
C       -4.67247100      -0.27582000      -2.33255500
C       -4.47979900      -1.48941100      -1.68491700
H       -4.34618000       2.97499800      -0.02860900
H       -3.32596900       4.95638700       1.11309800
H       -4.14534800       1.82795100      -2.33386000
H       -5.36056000      -0.20363100      -3.16745600
H       -5.01973900      -2.38149300      -1.97884700
C       -3.41074900      -2.78386400       0.12296300
N       -1.15507300       1.97399800       0.06096400
N       -2.87281600      -0.47115700      -0.24025600
C        0.84850200       3.00396600       0.87491900
H       -0.86393300       4.94754200       1.58565500
C        2.04686700       3.02989000       1.03460800
H        3.10808200       3.02982000       1.16206000
C       -3.35571200      -3.82682300       0.73329000
H       -3.28484000      -4.74655500       1.27413700
