47
Properties=species:S:1:pos:R:3 pbc="F F F"
Si      -0.31470100      -0.34864100      -0.76603600
O       -1.89257000      -0.12132100      -0.51138700
C       -2.96680000      -1.07446600      -0.23892400
C       -3.90354300      -0.46196400       0.77234600
H       -2.53014300      -1.99206100       0.16639200
C       -4.42773100       0.82423600       0.57901200
C       -4.28663500      -1.20305400       1.89581400
C       -5.32538200       1.36062200       1.50375200
H       -4.11951100       1.40771000      -0.28393400
C       -5.19190600      -0.66892600       2.81833700
H       -3.87549200      -2.19852400       2.04771900
C       -5.71200600       0.61373100       2.62337500
H       -5.72458200       2.35990900       1.35155100
H       -5.48502100      -1.25105300       3.68789700
H       -6.41273000       1.03207400       3.34105000
C       -3.68191000      -1.39794700      -1.56838100
C       -2.79740700      -2.06326900      -2.52073700
H       -4.07395500      -0.46419900      -1.98996500
H       -4.54242600      -2.03773500      -1.33602500
C       -2.01564800      -2.60771400      -3.26544900
H       -1.33295100      -3.08649800      -3.93298500
Cl       0.31653500       0.18643900      -2.63407300
Cl       0.31630600      -2.20175800      -0.16755300
O        0.38696100       0.79777400       0.35771800
O        3.07383200      -0.53709000      -0.91039900
C        2.55008200       1.68006000       0.43849200
C        2.97773300       0.46022000       1.15816500
C        3.69974500      -1.79090900       0.95040300
C        0.77078800       2.93046700      -0.56615500
C        1.63533600       3.99200300      -0.82043600
C        3.41778600       2.74383800       0.20546400
C        2.97080100       3.89737400      -0.43452800
C        3.15917800       0.41367700       2.53114200
C        3.61113600      -0.76090300       3.13728400
C        3.88024300      -1.86330200       2.33311100
H        4.44604100       2.63924400       0.53063500
H        3.65165700       4.71997700      -0.62261800
H        2.93619500       1.30125000       3.11355900
H        3.74947700      -0.81175000       4.21061800
H        4.23457500      -2.79802300       2.75299600
N        1.25530200       1.79437800       0.03133700
N        3.24747600      -0.62312600       0.34850100
H        1.23760000       4.87677700      -1.30297900
C       -0.61883500       3.00676500      -0.87254700
C        3.96459700      -2.88708200       0.08129800
N        4.19537300      -3.81230000      -0.58200300
N       -1.74311600       3.13657100      -1.12844100
