47
Properties=species:S:1:pos:R:3 pbc="F F F"
Si      -0.26145900      -1.21292200       0.86334700
O        0.78699000      -0.00390100       0.63677100
C        2.24969900       0.00572900       0.40866800
C        2.65124300      -1.06254300      -0.57913100
H        2.41904100       0.98841700      -0.03643900
C        3.03082500      -2.35053600      -0.17579600
C        2.57477700      -0.76443900      -1.94732500
C        3.32636100      -3.32717500      -1.13003800
H        3.09694500      -2.60332700       0.87794900
C        2.86908700      -1.73997400      -2.90060900
H        2.27490000       0.23297800      -2.25944200
C        3.24417800      -3.02471400      -2.49232700
H        3.62164100      -4.32207600      -0.80862100
H        2.80837200      -1.49924200      -3.95836700
H        3.47540100      -3.78554100      -3.23291600
C        2.97601000      -0.06174500       1.76272700
C        2.65075300       1.05255100       2.64935700
H        4.05270600      -0.06851700       1.55039800
H        2.74330800      -1.00822200       2.26379000
C        2.38341600       1.97763700       3.37995400
H        2.15471900       2.79293700       4.03053000
Cl      -0.55852700      -2.42328200      -0.76410300
Cl       0.02192900      -2.28812700       2.57579300
O       -1.78149900      -0.41602900       1.16927500
O       -0.23308100       1.95971900      -2.07354900
C       -2.30296800       1.14835400      -0.53900800
C       -1.27394900       2.05511000      -0.00549300
C        0.66305300       3.35643800      -0.45495300
C       -3.58409100      -0.86632900      -0.25277100
C       -4.38310400      -0.54037800      -1.34100800
C       -3.09324400       1.47062700      -1.64611500
C       -4.12429700       0.63317500      -2.05268800
C       -1.30943200       2.54826100       1.29420800
C       -0.35673600       3.46228400       1.73237300
C        0.63639200       3.86208600       0.84372200
H       -2.88496500       2.39956100      -2.16159400
H       -4.73834900       0.89751700      -2.90620100
H       -2.09935700       2.20788400       1.95349100
H       -0.38628200       3.85106900       2.74274800
H        1.41098500       4.56196600       1.13539600
N       -2.54928700      -0.03159800       0.09583800
N       -0.28863900       2.44251400      -0.89922700
H       -5.19138800      -1.20954900      -1.60991800
C       -3.79416900      -2.03676400       0.53235200
C        1.66728400       3.72056200      -1.39664000
N        2.51455000       4.04540800      -2.12201700
N       -4.01389300      -2.99755300       1.14496400
