47
Properties=species:S:1:pos:R:3 pbc="F F F"
Si      -0.04628900       1.87283000       0.52198800
O        0.34952700       0.94319500      -0.74092200
C        1.56695100       0.96488900      -1.56795300
C        2.24203000      -0.37984500      -1.46840900
H        2.23594700       1.73967700      -1.18295700
C        1.59032100      -1.54571800      -1.89452000
C        3.54589900      -0.46381500      -0.96104200
C        2.24183600      -2.77774300      -1.82238800
H        0.56999600      -1.49183000      -2.26015200
C        4.19945900      -1.69781900      -0.89107000
H        4.04872700       0.43974000      -0.62469200
C        3.54892200      -2.85596900      -1.32537500
H        1.73053800      -3.67746100      -2.15317100
H        5.21102600      -1.75224700      -0.49889600
H        4.05449800      -3.81629300      -1.27441700
C        1.13769600       1.32882500      -3.00091600
C        0.52364100       2.65291900      -3.06577700
H        0.44102300       0.56473200      -3.36653700
H        2.03061600       1.28802600      -3.63716800
C        0.01770600       3.75096600      -3.06139500
H       -0.42972400       4.72086800      -3.07606100
Cl       1.26989600       3.37189300       0.95319800
Cl      -1.95860800       2.57812100       0.41973400
O       -1.77477300      -1.91641000      -1.12972900
O       -0.04076600       0.79403600       1.90376700
C       -1.90730200      -1.06705700       1.03089900
C       -0.49503500      -1.43155600       1.22368300
C        1.69009500      -0.78814600       1.98418000
C       -3.82372200      -1.14738900      -0.38321300
C       -4.60562800      -0.58550800       0.62401800
C       -2.68335400      -0.50657400       2.04314900
C       -4.03978900      -0.26369800       1.85419800
C       -0.01286200      -2.72259000       0.99870400
C        1.31268200      -3.04678600       1.26005800
C        2.17178000      -2.07321100       1.76951800
H       -2.20455700      -0.27126600       2.98650400
H       -4.64026600       0.16706500       2.64624600
H       -0.70666500      -3.46020900       0.61797600
H        1.67376200      -4.05336900       1.08765700
H        3.20760300      -2.28375300       2.00192000
N       -2.46679700      -1.40411400      -0.19739400
N        0.38164500      -0.49626400       1.68897300
H       -5.65583800      -0.41052900       0.41901100
C       -4.35271400      -1.49105200      -1.66031900
C        2.51394800       0.24768600       2.51020300
N        3.24079000       1.04483100       2.93795600
N       -4.83817900      -1.75080300      -2.68314500
