47
Properties=species:S:1:pos:R:3 pbc="F F F"
Si      -0.81926800      -1.32041000       1.01955000
O        0.01954500      -0.79881800      -0.26009900
C        0.68347000      -1.60989600      -1.30521300
C        2.15536800      -1.68548200      -0.99368600
H        0.24700100      -2.61283600      -1.28164400
C        2.99321100      -0.57293900      -1.15739200
C        2.68747400      -2.88045600      -0.49341900
C        4.34476100      -0.65608900      -0.82021900
H        2.59052400       0.35621100      -1.54888500
C        4.04179300      -2.96633700      -0.15849900
H        2.03753300      -3.74311300      -0.36522100
C        4.87160300      -1.85295500      -0.32022200
H        4.98415200       0.21259600      -0.94833400
H        4.44608900      -3.89814200       0.22742300
H        5.92470700      -1.91662400      -0.05971700
C        0.34662200      -0.94616800      -2.65022300
C       -1.08559900      -0.97521300      -2.93972500
H        0.89926200      -1.48253700      -3.43157700
H        0.70694700       0.08828900      -2.63933000
C       -2.27441500      -1.02187800      -3.15683600
H       -3.31920700      -1.07642500      -3.37147800
Cl       0.22406200      -1.45827900       2.77085100
Cl      -1.85713100      -3.04664000       0.66617900
O        0.87514500       2.20919600      -1.36109200
O       -1.93545900      -0.02914300       1.35630400
C       -0.21367800       2.06082500       0.69058700
C       -1.47836300       1.84502500      -0.03016200
C       -3.54724800       0.62910900      -0.20425000
C        2.11283900       2.56143900       0.55597600
C        2.19583100       2.62562300       1.94538600
C       -0.14112400       2.13913100       2.08031500
C        1.06084400       2.41838000       2.72250300
C       -1.91870900       2.69229300      -1.05290900
C       -3.15959700       2.50939200      -1.64848700
C       -3.98695900       1.47222200      -1.21635400
H       -1.04644300       1.97953900       2.65285700
H        1.10907800       2.47600700       3.80308000
H       -1.26692100       3.50200200      -1.35323300
H       -3.49264900       3.17977600      -2.43269000
H       -4.96976000       1.30581800      -1.63984200
N        0.91457100       2.27902300      -0.09293100
N       -2.30098200       0.81987700       0.33904400
H        3.15942900       2.84414100       2.39157100
C        3.23936300       2.79180200      -0.28440200
C       -4.35735500      -0.42307500       0.31231700
N       -5.07315100      -1.25254400       0.69465700
N        4.19206700       2.99311000      -0.91757400
