65
Properties=species:S:1:pos:R:3 pbc="F F F"
Si      -0.07967900       0.15170900      -0.68720300
O       -0.29340300       0.96435500       0.73360000
C       -0.59849900       2.34586300       0.98904800
C        0.49074800       3.26670900       0.47990300
H       -1.55402700       2.59912000       0.51990300
C        1.83901900       2.90442600       0.59507200
C        0.15659700       4.51068700      -0.06566200
C        2.84188900       3.77337900       0.16023500
H        2.10239200       1.93580000       1.00894600
C        1.15903700       5.38607700      -0.49268500
H       -0.89055800       4.78656200      -0.16700800
C        2.50435000       5.01822900      -0.38185000
H        3.88420900       3.47605700       0.24173700
H        0.89051400       6.34816500      -0.92124900
H        3.28384400       5.69489300      -0.72218300
C       -0.72257300       2.48810000       2.52678900
C       -1.76233300       1.65840600       3.13239900
H       -0.91691300       3.54566100       2.74463800
H        0.25154000       2.24098900       2.96841100
C       -2.61309700       0.97185800       3.65084400
H       -3.36492900       0.37229900       4.11528200
Cl       1.59600100       0.13781300      -1.97990100
Cl      -1.21794700       1.49222500      -2.00947500
O        0.82255400      -1.04281400       0.52604400
O       -1.17356300      -1.19335400      -1.10265800
C        0.33778300      -3.23650700      -0.04071400
C       -1.03127900      -2.96038600       0.43246300
C       -3.00272400      -1.57949800       0.32055600
C        2.60786200      -2.44215700      -0.11474400
C        2.99206000      -3.70893100      -0.57876600
C        0.72279400      -4.49098700      -0.48309700
C        2.06710000      -4.72237600      -0.78342300
C       -1.60818000      -3.73872700       1.42533200
C       -2.87782100      -3.41371700       1.90688100
C       -3.55931000      -2.33661000       1.35728300
H       -0.02813300      -5.26538300      -0.58470400
H        2.38829100      -5.69414300      -1.14235000
H       -1.03918700      -4.56565600       1.83211600
H       -3.32861500      -4.00337700       2.69777300
H       -4.55813700      -2.07475200       1.68505000
N        1.26659100      -2.23641600       0.09247100
N       -1.73795500      -1.91030700      -0.08368500
H        4.04866200      -3.88126600      -0.74393100
C        3.59947400      -1.39116400       0.16742900
C        3.53806900      -0.58944000       1.32162700
C        4.67315300      -1.23193800      -0.72776300
C        4.53150700       0.35761900       1.56414100
H        2.72421100      -0.71066700       2.02567400
C        5.65293700      -0.27118000      -0.48723900
H        4.71765200      -1.83479600      -1.62975100
C        5.58436100       0.52728400       0.65882100
H        4.47946300       0.96839300       2.46074700
H        6.46464100      -0.14204900      -1.19710700
H        6.34736800       1.27761700       0.84602200
C       -3.75522700      -0.50032300      -0.33926700
C       -3.97936500      -0.51678100      -1.72574700
C       -4.33089900       0.50328600       0.45573800
C       -4.78262400       0.46205800      -2.30550400
H       -3.53514900      -1.29307200      -2.33883100
C       -5.10792000       1.49744900      -0.13823100
H       -4.13669100       0.52298400       1.52294000
C       -5.34002300       1.47441700      -1.51689900
H       -4.96411300       0.44138900      -3.37597200
H       -5.53147400       2.28678200       0.47596400
H       -5.95263500       2.24468800      -1.97709600
