65
Properties=species:S:1:pos:R:3 pbc="F F F"
Si      -0.15227300      -0.23793900       0.05747000
O        1.32729800      -0.99401700      -0.14498300
C        1.69027500      -2.37224400      -0.25413700
C        3.17168800      -2.44732300      -0.56061100
H        1.12511000      -2.83624400      -1.07065400
C        4.10415200      -1.82223900       0.27866200
C        3.62472400      -3.17598600      -1.66588800
C        5.47067900      -1.93092700       0.01775100
C        4.99433200      -3.28692200      -1.92953100
H        2.90167600      -3.65644200      -2.32142100
C        5.92002600      -2.66535100      -1.08601000
H        6.18610300      -1.43947500       0.67172900
H        5.33580800      -3.85391500      -2.79176300
H        6.98473800      -2.74926600      -1.28829800
C        1.38230500      -3.14613800       1.05948500
C       -0.04622400      -3.22682400       1.34127500
H        1.90376300      -2.64723800       1.88508200
H        1.80450800      -4.15410200       0.96202800
C       -1.24289500      -3.24940800       1.52038700
H       -2.30014300      -3.25535800       1.67495600
Cl       0.24271000       0.16051900       2.16661400
Cl      -1.13779700      -1.37120800      -1.53006000
O        0.26369300       1.22375200      -0.85173400
O       -1.81321600       0.48460400       0.57815800
C       -1.23246800       2.95114900      -0.36148000
C       -2.33240900       2.15865200      -0.95262900
C       -3.78493000       0.25542700      -0.69654300
C        1.08966400       3.11154200       0.27673500
C        0.81979300       4.38349500       0.80411300
C       -1.48129900       4.22178400       0.13202100
C       -0.44581100       4.94281300       0.73168100
C       -3.12743500       2.66567800      -1.96754900
C       -4.24643400       1.94114900      -2.38678700
C       -4.57691100       0.76152600      -1.73569700
H       -2.48669700       4.61853200       0.06335000
H       -0.63102800       5.93449000       1.12998300
H       -2.86335400       3.61687400      -2.41341300
H       -4.87001600       2.31677800      -3.19069300
H       -5.47413400       0.21307600      -1.99597000
N        0.03501700       2.43939900      -0.28134500
N       -2.65179300       0.95443800      -0.38117100
H        1.64748500       4.92939800       1.23961600
C        2.44573900       2.54318200       0.30688000
C        3.19473400       2.69874200       1.48834300
C        3.03881000       1.93877400      -0.81689300
C        4.50961600       2.24237400       1.54922400
H        2.73548800       3.15076500       2.36207900
C        4.35996300       1.50423100      -0.75275600
H        2.47686600       1.82237000      -1.73491400
C        5.09597500       1.64966800       0.42704400
H        5.07300000       2.34799200       2.47158800
H        6.12115700       1.29459300       0.47362700
C       -4.17345700      -0.94634400       0.05870500
C       -4.15287700      -0.96595900       1.46459300
C       -4.66980400      -2.05754000      -0.64516700
C       -4.63164600      -2.08125800       2.15041700
H       -3.77689400      -0.11174800       2.01495600
C       -5.12116100      -3.17976200       0.04696400
H       -4.67507500      -2.04945300      -1.73080000
C       -5.10805900      -3.19255200       1.44590000
H       -4.62505900      -2.08487100       3.23639700
H       -5.48244800      -4.04250700      -0.50467500
H       -5.46602800      -4.06511900       1.98492600
H        4.81215500       1.03905700      -1.62301400
H        3.75460200      -1.23735700       1.12433700
