65
Properties=species:S:1:pos:R:3 pbc="F F F"
Si      -0.58526100      -0.66250800      -0.43682800
O        0.99342700      -0.83240100       0.00136700
C        1.78297800      -1.88944000       0.55681000
C        2.60213600      -1.35999200       1.72622700
H        1.12948700      -2.69188000       0.91269000
C        2.42079000      -0.06894800       2.23627500
C        3.54959400      -2.19532400       2.33894900
C        3.18912600       0.39170400       3.30990000
H        1.67266800       0.57842600       1.79775600
C        4.31515400      -1.74006100       3.41444800
H        3.69010400      -3.21193700       1.98186300
C        4.14407300      -0.43915500       3.90040500
H        3.03622600       1.40123800       3.68347800
H        5.04442400      -2.40283800       3.87285600
H        4.74262100      -0.08266900       4.73443100
C        2.68338700      -2.45153400      -0.57301100
C        1.91756300      -3.06476000      -1.65379000
H        3.36655400      -3.19141200      -0.14202100
H        3.29474000      -1.63296500      -0.96536500
C        1.26452200      -3.56185100      -2.54174600
H        0.68141600      -3.99539900      -3.32406600
Cl      -1.47633300      -0.98561800      -2.32306700
Cl      -1.36122400      -2.51677400       0.44959900
O       -1.55511200       0.27008500       0.74444300
O       -0.07537900       1.00595000      -1.22244500
C       -1.70968600       2.54431600       0.18516600
C       -0.25362800       2.67237700       0.36942000
C        1.91962800       2.04367500      -0.45190800
C       -3.66212200       1.13420200       0.15835200
C       -4.42100600       2.24539600      -0.23248800
C       -2.47445400       3.64922700      -0.15605100
C       -3.84326600       3.49703500      -0.38393000
C        0.29171400       3.62162000       1.21663300
C        1.67805500       3.78313500       1.24608100
C        2.46617300       3.01387800       0.40556000
H       -1.98123100       4.60670200      -0.27079900
H       -4.44805600       4.35114300      -0.66877000
H       -0.36964600       4.21920800       1.83233900
H        2.13168000       4.51853000       1.90134300
H        3.53817900       3.16009700       0.37615900
N       -2.31740300       1.32732600       0.33262700
N        0.55575600       1.89357900      -0.41706900
H       -5.48472900       2.09708300      -0.37252300
C       -4.29436700      -0.17028100       0.40720000
C       -4.10579000      -0.85903200       1.61709600
C       -5.19123000      -0.67189100      -0.55259200
C       -4.81486900      -2.03264000       1.86141500
H       -3.41957900      -0.47339600       2.36162700
C       -5.87355000      -1.86316800      -0.31212800
H       -5.33163700      -0.14121300      -1.48961000
C       -5.69102400      -2.54158000       0.89737800
H       -4.67492800      -2.55600300       2.80252500
H       -6.54739900      -2.25868700      -1.06628700
H       -6.23009800      -3.46536200       1.08782300
C        2.78333400       1.25467800      -1.34343900
C        2.41340500       0.90231800      -2.65497800
C        4.06710400       0.90677700      -0.87636700
C        3.31086000       0.21836400      -3.47253100
H        1.43660500       1.16738500      -3.03660100
C        4.95632800       0.21965300      -1.69904800
H        4.35377800       1.13546300       0.14468300
C        4.58076800      -0.12794600      -3.00075000
H        3.01408800      -0.04678600      -4.48289200
H        5.93375000      -0.05872000      -1.31657100
H        5.27095900      -0.67016200      -3.64068600
