65
Properties=species:S:1:pos:R:3 pbc="F F F"
Si       0.22242600      -0.24561000      -1.02323000
O       -0.15910400      -1.47602500       0.00193000
C       -1.12861400      -1.62327600       1.05021600
C       -2.31719200      -2.44337500       0.58241000
H       -1.48929000      -0.64431100       1.37366000
C       -2.34611100      -3.09154000      -0.65692400
C       -3.42815500      -2.54215800       1.43263500
C       -3.47251700      -3.82950200      -1.03833200
H       -1.49402100      -3.01366400      -1.32401800
C       -4.55030800      -3.27997900       1.05434300
H       -3.41730900      -2.03123500       2.39224900
C       -4.57578400      -3.92737000      -0.18626800
H       -3.48524500      -4.32674600      -2.00488700
H       -5.40532600      -3.34397100       1.72247200
H       -5.44978600      -4.49965000      -0.48599400
C       -0.40917200      -2.29734500       2.24474200
C        0.62612900      -1.44666800       2.82834200
H        0.02400900      -3.24417100       1.89718000
H       -1.16101200      -2.54337800       3.00356900
C        1.47770100      -0.71917000       3.28534700
H        2.23232600      -0.09091300       3.70466600
Cl      -1.15459100       0.57778700      -2.41036000
Cl       1.07279400      -1.61877500      -2.51677000
O       -0.29882000       0.98666700       0.32959500
O        1.82942300       0.53356600      -1.02073700
C        0.78696000       2.99430600      -0.08860200
C        2.01329300       2.38045700       0.44755100
C        3.55622700       0.53652100       0.55094300
C       -1.61253300       2.86505900      -0.20549000
C       -1.63058700       4.18306500      -0.67742500
C        0.76505400       4.30537700      -0.54136300
C       -0.45534400       4.89471400      -0.87660900
C        2.76900500       3.08363200       1.37704100
C        3.93609400       2.52404700       1.89502800
C        4.31514200       1.25602600       1.48119400
H        1.70011700       4.84600100      -0.62412000
H       -0.48571400       5.91209300      -1.25097800
H        2.41874500       4.05780400       1.69560100
H        4.52786900       3.06799500       2.62314000
H        5.20377000       0.77676200       1.87361100
N       -0.38463500       2.29143800       0.00398100
N        2.42533600       1.13453200       0.05616000
H       -2.59749900       4.63768600      -0.85692400
C       -2.84730400       2.13049000       0.10677100
C       -3.00009700       1.46871300       1.33787400
C       -3.92010100       2.17165100      -0.79896500
C       -4.20906500       0.85071800       1.64892300
H       -2.18273100       1.45494100       2.05034300
C       -5.11947200       1.53183800      -0.48966700
H       -3.80009600       2.67509800      -1.75321600
C       -5.26631900       0.87028000       0.73369900
H       -4.32433100       0.35082500       2.60547000
H       -5.93647700       1.54678300      -1.20488700
H       -6.20058900       0.37055800       0.97297200
C        3.99349000      -0.79162800       0.09028500
C        5.31149200      -0.92586700      -0.38299800
C        3.16963800      -1.92158400       0.19768400
C        5.78744900      -2.17773600      -0.76949100
H        5.94728900      -0.04912800      -0.46615300
C        3.66155300      -3.17283800      -0.16924600
H        2.16758500      -1.82890200       0.59473400
C        4.96411900      -3.30380600      -0.65972400
H        6.79887800      -2.27332500      -1.15341900
H        3.02181700      -4.04531600      -0.07548200
H        5.33867200      -4.28026800      -0.95399900
