65
Properties=species:S:1:pos:R:3 pbc="F F F"
Si      -0.40787000      -0.95512300      -0.11527500
O        1.16088600      -1.04784200       0.35228200
C        2.06821600      -1.05907000       1.46689900
C        2.07569600       0.27705100       2.18108600
H        3.04558700      -1.20612300       0.99708400
C        0.89776000       0.83912900       2.69113200
C        3.28559300       0.96105500       2.35004100
C        0.92770500       2.07840200       3.33360800
H       -0.04376000       0.31021300       2.58585100
C        3.32106100       2.19591700       3.00321700
H        4.20421700       0.52289500       1.96761500
C        2.13906600       2.76198800       3.48861100
H        0.00668600       2.50793200       3.71887100
H        4.26685800       2.71735000       3.12370200
H        2.16127500       3.72624700       3.98922500
C        1.86842100      -2.23667600       2.45069700
C        1.93045500      -3.53734800       1.79082500
H        0.92413600      -2.12188700       2.98974300
H        2.67847900      -2.15532900       3.18752600
C        1.99613300      -4.59895100       1.21509000
H        2.04242500      -5.54036000       0.71290100
Cl      -1.15086600      -2.21895700      -1.62785500
Cl      -1.31779100      -2.07807000       1.54578200
O       -1.44416700       0.40820400       0.41807400
O        0.14932000       0.15183500      -1.56571300
C       -1.23271100       2.32739900      -0.92861500
C        0.22564800       2.31270800      -0.72830200
C        2.27175400       1.15602400      -1.24129400
C       -3.35534100       1.22083800      -0.66815700
C       -3.93742200       2.22205300      -1.45828000
C       -1.82256500       3.33511000      -1.67661800
C       -3.19028900       3.28186200      -1.94915900
C        0.91742600       3.40618000      -0.23633700
C        2.31214400       3.37047400      -0.21963700
C        2.96843600       2.26745800      -0.74290400
H       -1.19413800       4.12682700      -2.06614900
H       -3.66085900       4.05922900      -2.54132000
H        0.36110800       4.26143100       0.12766000
H        2.87712500       4.20643100       0.17668800
H        4.04966700       2.24296200      -0.78948300
N       -2.00919300       1.31617300      -0.43292900
N        0.90346000       1.20977300      -1.17684000
H       -5.00284200       2.15568400      -1.64098800
C       -4.16941300       0.12817900      -0.11151700
C       -4.14863300      -0.20461100       1.25322800
C       -5.06609700      -0.52614300      -0.97674600
C       -5.02095500      -1.17548200       1.74111500
H       -3.46464500       0.29745800       1.92558200
C       -5.91482100      -1.51561500      -0.48505100
H       -5.07743300      -0.27320800      -2.03281800
C       -5.89787100      -1.83746500       0.87632700
H       -5.00767300      -1.42192000       2.79858300
H       -6.58793000      -2.03242300      -1.16263400
H       -6.56516600      -2.60335100       1.26149700
C        2.97710500      -0.00197000      -1.81124400
C        2.50802400      -0.69384300      -2.94358100
C        4.20263400      -0.38519800      -1.23316700
C        3.24709700      -1.75081500      -3.47055200
H        1.57763300      -0.40253800      -3.41294300
C        4.92703900      -1.45500800      -1.75372900
H        4.57566800       0.14032200      -0.36039200
C        4.45055000      -2.14244800      -2.87415600
H        2.87852100      -2.27317800      -4.34855700
H        5.85903900      -1.75267500      -1.28247400
H        5.01411600      -2.97710500      -3.28141800
