65
Properties=species:S:1:pos:R:3 pbc="F F F"
Si       0.47437300       1.68899900      -0.39729000
O       -1.16208900       1.80269400      -0.22381500
C       -2.03870900       2.35028100       0.79047000
C       -2.57998600       1.18197100       1.59801800
H       -1.45969600       3.00494700       1.44749400
C       -3.91263500       0.75718500       1.54406700
C       -1.67600000       0.47726000       2.41028200
C       -4.33362500      -0.35109400       2.28590300
H       -4.63419500       1.28026700       0.92517700
C       -2.08959200      -0.63817100       3.13675600
H       -0.64123300       0.80487800       2.46429700
C       -3.42452300      -1.05671000       3.07580000
H       -5.37031200      -0.66858400       2.23123700
H       -1.37640200      -1.17581000       3.75604500
H       -3.75258200      -1.92262100       3.64469100
C       -3.11242700       3.18855300       0.07602300
C       -2.54697900       4.32597000      -0.64543600
H       -3.82714700       3.54112100       0.83024000
H       -3.66602400       2.54533100      -0.61970800
C       -2.06113700       5.25910700      -1.24120800
H       -1.63078500       6.08451600      -1.76484400
Cl       1.06060600       3.30309900       0.98907500
Cl       1.50640000       2.47662700      -2.05543500
O        0.16212900       0.19382600      -1.51458600
O        1.37898600       0.59164000       0.69426900
C        0.12792200      -1.75186200      -0.21427800
C        1.58084600      -1.63201800      -0.11324100
C        3.48277100      -0.24202500       0.27845200
C       -1.87900800      -0.84972500      -1.12519400
C       -2.64778600      -1.90596000      -0.62252300
C       -0.59628100      -2.82080500       0.30639500
C       -1.96859200      -2.89890900       0.10857800
C        2.43893800      -2.69704200      -0.38610800
C        3.81551300      -2.53183400      -0.32800500
C        4.37423600      -1.28036300      -0.00311400
H       -0.07051700      -3.58081700       0.87251800
H       -2.51239900      -3.74629700       0.50855800
H        2.00113300      -3.64841800      -0.66439200
H        4.46397600      -3.37633700      -0.53206300
H        3.78302200       0.76064700       0.55170400
N       -0.54816100      -0.80540300      -0.93166500
N        2.14979900      -0.44029500       0.23497300
H       -2.27571500      -0.01761000      -1.68676900
C        5.82853900      -1.04884500       0.05418600
C        6.37574700      -0.10496800       0.94422900
C        6.69171700      -1.77805100      -0.78530800
C        7.75341400       0.10100100       0.99327900
H        5.72909900       0.44636700       1.62039500
C        8.06822900      -1.56373600      -0.73786000
H        6.28354500      -2.49156300      -1.49457100
C        8.60285300      -0.62562700       0.15198000
H        8.16417900       0.82333000       1.69254500
H        8.72270800      -2.12374300      -1.39944900
H        9.67611100      -0.46196000       0.18987900
C       -4.10043100      -1.94664100      -0.86630400
C       -4.66705300      -1.28868000      -1.97515200
C       -4.95104400      -2.64092400       0.01465000
C       -6.04374900      -1.31847900      -2.19060100
H       -4.03230800      -0.77357500      -2.68970300
C       -6.32697100      -2.66820900      -0.20231600
H       -4.54305100      -3.12844400       0.89344000
C       -6.87924700      -2.00528900      -1.30350100
H       -6.46272800      -0.81168700      -3.05505300
H       -6.96983900      -3.19750700       0.49506800
H       -7.95252700      -2.02531700      -1.47020500
