65
Properties=species:S:1:pos:R:3 pbc="F F F"
Si       0.35421800       1.21033600       1.03388100
O       -0.71068500       2.49402600       0.78957300
C       -1.01011500       3.10533200      -0.47559100
C       -2.27294500       2.52118400      -1.07945600
H       -0.17642900       2.97344400      -1.17632700
C       -3.44449700       2.42460200      -0.31461600
C       -2.29772300       2.12406000      -2.42010600
C       -4.62671700       1.95379600      -0.89011200
H       -3.42437200       2.71696600       0.73150300
C       -3.47931400       1.64810300      -2.99881500
H       -1.38766500       2.18882500      -3.01227700
C       -4.64820700       1.56919900      -2.23639000
H       -5.52992900       1.88324000      -0.29007900
H       -3.48681200       1.34133500      -4.04147700
H       -5.56820600       1.20228000      -2.68349700
C       -1.20966100       4.62321100      -0.23203900
C       -0.01134500       5.31539200       0.23508500
H       -2.02110500       4.74264900       0.49739000
H       -1.55395000       5.07254000      -1.17253600
C        0.98036800       5.89487900       0.61406000
H        1.85895300       6.39827900       0.95339400
Cl      -0.17702900       1.09604800       3.07880400
Cl       2.12361700       2.15577800       0.32874200
O       -0.35114400       0.25096700      -0.32507300
O        1.33285600      -0.37420100       1.48247800
C       -0.01833000      -2.07726100      -0.17627100
C        1.42382500      -1.88234300      -0.31342600
C        3.38991600      -0.81808000       0.50621800
C       -2.19328000      -1.10234100      -0.00604600
C       -2.80404900      -2.35644800       0.09212000
C       -0.59480700      -3.34440200      -0.09726400
C       -1.96770700      -3.48768200       0.03906700
C        2.20092800      -2.60609400      -1.21558700
C        3.57654400      -2.42308000      -1.26203600
C        4.20579300      -1.51284300      -0.39241500
H        0.05739100      -4.20905400      -0.12639500
H       -2.39997700      -4.48041000       0.09412600
H        1.70794400      -3.30350400      -1.88245300
H        4.16934000      -2.99908400      -1.96308900
H        3.75444500      -0.09693000       1.22293100
N       -0.85336000      -0.99724500      -0.13383900
N        2.05581200      -1.01078900       0.52798500
H       -2.72541700      -0.15805800       0.00611500
C        5.66042600      -1.27418900      -0.40961500
C        6.34959000      -0.91615900       0.76477100
C        6.38039600      -1.39738700      -1.61311300
C        7.72489400      -0.69031000       0.73448800
H        5.81651700      -0.84158000       1.70813600
C        7.75440900      -1.16367300      -1.64037900
H        5.86035600      -1.64639100      -2.53342000
C        8.43075700      -0.81108700      -0.46742300
H        8.24620600      -0.42573900       1.64984400
H        8.29587000      -1.24930700      -2.57805700
H        9.50179900      -0.63086600      -0.49001300
C       -4.26594200      -2.46390200       0.23969200
C       -5.11597200      -1.51862600      -0.36101300
C       -4.82895000      -3.51859100       0.98251900
C       -6.49856800      -1.62405400      -0.22205100
H       -4.69717900      -0.71402000      -0.95551000
C       -6.21234200      -3.61687500       1.12467100
H       -4.18501100      -4.24366200       1.47158200
C       -7.05096600      -2.67188300       0.52245600
H       -7.14305600      -0.89156900      -0.69992100
H       -6.63597500      -4.42717800       1.71090700
H       -8.12862300      -2.75273000       0.63337200
