65
Properties=species:S:1:pos:R:3 pbc="F F F"
Si       0.35001300       1.30342300       0.42501900
O       -0.96515400       2.27546100       0.06719600
C       -2.36741600       2.03675800       0.07684600
C       -3.08178900       3.26661500      -0.44546000
H       -2.59831300       1.19498500      -0.58649300
C       -2.73642000       4.54531700       0.01238000
C       -4.13672000       3.12244300      -1.35329000
C       -3.43890000       5.66557400      -0.43696400
H       -1.91033200       4.65794200       0.70875200
C       -4.84498200       4.24258600      -1.80004300
H       -4.40095600       2.13066000      -1.71422800
C       -4.49640400       5.51674500      -1.34230100
H       -3.16206900       6.65485300      -0.08175400
H       -5.66062900       4.12065600      -2.50802700
H       -5.04163800       6.38958500      -1.69179200
C       -2.87566000       1.71024900       1.51144300
C       -2.28859100       0.49311600       2.05890800
H       -3.96794800       1.61827400       1.47454000
H       -2.63450700       2.56204100       2.15874400
C       -1.76420900      -0.51154600       2.48480700
H       -1.30632800      -1.39262200       2.87770400
Cl       1.77997400       2.11827400      -0.89929200
Cl       0.70800000       2.26913500       2.34179300
O        1.34331800      -0.07049300       1.16310700
O       -0.36767400      -0.01041500      -0.71971500
C        1.79108600      -1.79795700      -0.37957700
C        0.39588400      -2.21791800      -0.30065700
C       -1.91483500      -1.67243800      -0.37436200
C        3.50292600      -0.32710100       0.38658000
C        4.48944600      -0.99997900      -0.33807600
C        2.74470400      -2.49542800      -1.12276400
C        4.07576900      -2.10552300      -1.10640100
C        0.05302700      -3.56095900      -0.13315200
C       -1.27475000      -3.95802900      -0.09165200
C       -2.30101500      -3.00455900      -0.21381100
H        2.41860700      -3.34218700      -1.71455900
H        4.80331700      -2.66812700      -1.68009400
H        0.85343200      -4.28374500      -0.02727500
H       -1.51701000      -5.00784800       0.02556300
H       -2.61990400      -0.86252500      -0.47185400
N        2.21751500      -0.73391200       0.35650600
N       -0.61644800      -1.30694800      -0.42943800
H        3.68926600       0.54115800       1.00219200
C       -3.73125700      -3.35729000      -0.16828800
C       -4.68697600      -2.59196100      -0.86382700
C       -4.16171900      -4.47064900       0.57808900
C       -6.03751000      -2.93244900      -0.81321000
H       -4.37254400      -1.74801500      -1.47064600
C       -5.51418400      -4.80414100       0.63143200
H       -3.44185200      -5.05992300       1.13826300
C       -6.45559100      -4.03748700      -0.06394000
H       -6.76221300      -2.33995600      -1.36398600
H       -5.83409400      -5.65861600       1.22067200
H       -7.50883100      -4.30032000      -0.02313600
C        5.88986300      -0.54474400      -0.28352000
C        6.39856500       0.08666500       0.86786300
C        6.74051300      -0.73790300      -1.38862000
C        7.72550100       0.51067400       0.91188500
H        5.76632600       0.22143000       1.74055600
C        8.06502900      -0.30591100      -1.34275700
H        6.35877300      -1.20110900      -2.29358500
C        8.56192400       0.31745000      -0.19291800
H        8.10794700       0.98625600       1.81031300
H        8.70741700      -0.44975700      -2.20666200
H        9.59508300       0.65131600      -0.15803500
