65
Properties=species:S:1:pos:R:3 pbc="F F F"
Si       0.34426400       1.60886600      -0.70589300
O       -1.28039600       1.78508200      -0.54642300
C       -2.31371200       2.12813900       0.40799700
C       -2.30722900       1.18514500       1.59254900
H       -3.23776200       1.97000700      -0.15712000
C       -1.23522400       1.16045300       2.49636100
C       -3.39252900       0.32452800       1.79713000
C       -1.24007600       0.27105100       3.57216200
H       -0.39393400       1.83167500       2.35491000
C       -3.40538700      -0.55790700       2.88096800
H       -4.22827800       0.34256200       1.10215700
C       -2.32519800      -0.59156800       3.76693200
H       -0.40140500       0.25624600       4.26330200
H       -4.25469400      -1.21931000       3.02899600
H       -2.33017600      -1.28073100       4.60726500
C       -2.29537000       3.61001200       0.84733500
C       -2.32593800       4.54090900      -0.27669100
H       -1.42449700       3.80420600       1.47956900
H       -3.18738600       3.75224300       1.47187400
C       -2.35732000       5.29684400      -1.22032000
H       -2.37658300       5.97064700      -2.04875900
Cl       1.31172200       2.23037900      -2.47487200
Cl       1.03313900       3.34609000       0.47246800
O        1.23205500       0.60828800       0.48730300
O        0.03729100       0.00485900      -1.67946400
C        1.43828700      -1.68110100      -0.09531700
C       -0.01425900      -1.80398300      -0.19614700
C       -2.00909900      -0.98535100      -1.20589300
C        3.33850400      -0.26006500       0.17569500
C        4.23099700      -1.32239200       0.00999900
C        2.29656600      -2.76939500      -0.25096200
C        3.67275500      -2.59980300      -0.19350200
C       -0.74847200      -2.80765900       0.43017700
C       -2.12037100      -2.89476100       0.23557700
C       -2.78653400      -1.97276600      -0.59302300
H        1.86093700      -3.74406200      -0.43807500
H        4.32167300      -3.46120300      -0.30395800
H       -0.23001700      -3.50537700       1.07700100
H       -2.67818900      -3.68548400       0.72330100
H       -2.40054100      -0.20897100      -1.84640500
N        2.00590800      -0.46128700       0.13850100
N       -0.67851100      -0.93076400      -1.01073600
H        3.63651500       0.76473700       0.35164500
C       -4.24403500      -2.00165900      -0.80571100
C       -4.81125100      -1.51498800      -1.99907600
C       -5.09488700      -2.50413300       0.19683900
C       -6.19289500      -1.53183800      -2.18251500
H       -4.17224100      -1.14780300      -2.79661600
C       -6.47625800      -2.51356600       0.01268500
H       -4.67809900      -2.85867700       1.13404200
C       -7.02973300      -2.02844500      -1.17721000
H       -6.61589400      -1.16263300      -3.11222300
H       -7.12091200      -2.89237500       0.80047000
H       -8.10650600      -2.03731200      -1.32049100
C        5.68499600      -1.08702500       0.05951500
C        6.22350100      -0.04572900       0.83968100
C        6.55799100      -1.90961000      -0.67741200
C        7.60060500       0.16531900       0.88041900
H        5.57058900       0.58101900       1.43987400
C        7.93410600      -1.69134600      -0.63837000
H        6.15831600      -2.70224900      -1.30256200
C        8.45949100      -0.65476800       0.14076800
H        8.00332400       0.96502600       1.49507400
H        8.59553900      -2.32567100      -1.22126000
H        9.53237300      -0.48731200       0.17183800
