65
Properties=species:S:1:pos:R:3 pbc="F F F"
Si      -0.05525900       0.89126000       0.91888000
O        0.86363600       1.55950800      -0.27143800
C        1.50531600       2.85608300      -0.31558400
C        0.47716900       3.94551700      -0.52094400
H        2.04175200       3.02805000       0.62158800
C       -0.44587800       3.86435100      -1.57353000
C        0.43756500       5.04375600       0.34470700
C       -1.39545700       4.87056000      -1.75628100
H       -0.42931500       3.00354100      -2.23662400
C       -0.51077000       6.05526400       0.16111700
H        1.14327100       5.09794800       1.17008600
C       -1.42876400       5.96980900      -0.88948300
H       -2.11025300       4.79910800      -2.57208600
H       -0.53706100       6.90232300       0.84155300
H       -2.16978700       6.75225900      -1.03064700
C        2.52500500       2.80380100      -1.47450900
C        3.59817400       1.83532000      -1.25457300
H        2.95108500       3.80880200      -1.58605600
H        1.98797800       2.57485900      -2.40363000
C        4.49292900       1.04580600      -1.05380100
H        5.27958000       0.34434900      -0.88153300
Cl      -1.97767600       1.55861100       1.50837300
Cl       0.91604900       1.79178200       2.69109200
O       -0.84670300      -0.05668600      -0.54685500
O        0.48463600      -0.69370900       1.53303600
C       -1.04442000      -2.34390800      -0.07800600
C        0.41525700      -2.41706100      -0.08072300
C        2.47950600      -1.46437900       0.65230800
C       -2.96916000      -0.97255000      -0.37215400
C       -3.83286400      -2.06353100      -0.22498800
C       -1.86696600      -3.45886300       0.06039000
C       -3.24767900      -3.32500900      -0.00774300
C        1.12930500      -3.35012200      -0.83115200
C        2.51804700      -3.33067800      -0.84473800
C        3.22913100      -2.36479400      -0.10759700
H       -1.40648600      -4.42515000       0.23015100
H       -3.87562800      -4.20295400       0.09255000
H        0.57467700      -4.06940700      -1.42170700
H        3.05641300      -4.06646600      -1.43153900
H        2.90746200      -0.68551300       1.26774600
N       -1.63160200      -1.12624000      -0.30033100
N        1.13374200      -1.52483000       0.65960000
H       -3.29699500       0.04211900      -0.54448000
C        4.69828300      -2.26239300      -0.12476500
C        5.40428100      -1.79868100       1.00139500
C        5.41079100      -2.58972900      -1.29311900
C        6.79043600      -1.65968100       0.95477200
H        4.87377800      -1.56427200       1.91974500
C        6.79648400      -2.44283000      -1.33742800
H        4.87683000      -2.92206600      -2.17812700
C        7.48969900      -1.97637000      -0.21520600
H        7.32468100      -1.30656600       1.83179300
H        7.33337400      -2.68190900      -2.25066900
H        8.56900800      -1.86005200      -0.25209000
C       -5.29218800      -1.86668900      -0.29580600
C       -5.84781100      -0.83875600      -1.08163300
C       -6.15385000      -2.71006600       0.43108700
C       -7.22921000      -0.66184100      -1.13891600
H       -5.20298500      -0.19464700      -1.67208100
C       -7.53449800      -2.52628900       0.37572900
H       -5.74206300      -3.49173700       1.06222500
C       -8.07647900      -1.50306900      -0.40965200
H       -7.64436300       0.12838100      -1.75764900
H       -8.18676400      -3.17669000       0.95131100
H       -9.15274300      -1.36192700      -0.45293500
