65
Properties=species:S:1:pos:R:3 pbc="F F F"
Si      -0.37876900       1.48548900       1.22864900
O        0.48867300       2.43348900       0.20278500
C        0.59783700       2.47436100      -1.24254400
C        1.67833900       1.52899200      -1.71662500
H       -0.35619800       2.20273800      -1.69981000
C        2.98366900       1.62428300      -1.20828100
C        1.39337000       0.57369000      -2.69752000
C        3.99135900       0.79030000      -1.69357500
H        3.20481300       2.35248400      -0.43270000
C        2.40213200      -0.26549200      -3.18295600
H        0.37954400       0.49050800      -3.08164900
C        3.70312300      -0.15212700      -2.68693700
H        4.99840900       0.86810300      -1.29430500
H        2.17171900      -1.00305300      -3.94728400
H        4.48927500      -0.79868400      -3.06538600
C        0.92504900       3.93723300      -1.62044700
C       -0.15476000       4.86271500      -1.28493400
H        1.12207400       3.96708200      -2.69959800
H        1.85230800       4.23103600      -1.11304000
C       -1.06765600       5.60534300      -1.00562700
H       -1.86564200       6.26939500      -0.75447100
Cl       0.51094900       2.42947700       3.00210600
Cl      -2.36729600       1.92389700       1.82912700
O       -1.04443900       0.50314100      -0.26855100
O        0.25425700      -0.06989800       1.83731200
C       -1.21670900      -1.78400500       0.19702200
C        0.24085400      -1.83917900       0.26583600
C        2.27335300      -0.85816800       1.04575100
C       -3.14830000      -0.46053000      -0.24570800
C       -3.99642300      -1.56772700      -0.14140400
C       -2.02658800      -2.91244000       0.30732400
C       -3.40180700      -2.81069600       0.14625300
C        0.98724700      -2.80708100      -0.40442300
C        2.37323300      -2.80162800      -0.34048000
C        3.05803600      -1.80743400       0.38469000
H       -1.55883400      -3.86514800       0.52630400
H       -4.01617100      -3.70031200       0.22536400
H        0.45950400      -3.54893500      -0.99177200
H        2.92969400      -3.57678800      -0.85392400
H        2.66868500      -0.05059400       1.64536700
N       -1.81541900      -0.58385300      -0.07916400
N        0.92775700      -0.91456800       0.99670000
H       -3.48593100       0.54380000      -0.45497300
C        4.52712800      -1.74711200       0.46735900
C        5.16909200      -1.13483100       1.56096700
C        5.31607300      -2.29103600      -0.56384300
C        6.55981200      -1.05946000       1.61372000
H        4.58821300      -0.73887800       2.38826200
C        6.70562000      -2.21061100      -0.51026100
H        4.84404800      -2.74417500      -1.42889700
C        7.33277200      -1.59242100       0.57699800
H        7.03939500      -0.59033500       2.46772900
H        7.29893900      -2.62186000      -1.32171600
H        8.41644000      -1.52884800       0.61711900
C       -5.44948600      -1.40501800      -0.32776900
C       -5.96102400      -0.41419000      -1.18769500
C       -6.34871400      -2.24373400       0.35761700
C       -7.33681900      -0.26918200      -1.35824000
H       -5.28373000       0.22542000      -1.74619200
C       -7.72404900      -2.09124300       0.18919800
H       -5.97274400      -2.99524900       1.04514800
C       -8.22220600      -1.10540700      -0.66960100
H       -7.71746400       0.49201300      -2.03300700
H       -8.40701900      -2.73673800       0.73383000
H       -9.29430600      -0.98908400      -0.80075500
