65
Properties=species:S:1:pos:R:3 pbc="F F F"
Si       0.26738900       1.30994300      -0.17067300
O       -1.33863000       1.12084300       0.15554000
C       -2.25574500       1.78606400       1.04412400
C       -2.98525700       2.90177700       0.32861900
H       -1.71563300       2.18870400       1.90520100
C       -3.44433600       2.73723200      -0.98523600
C       -3.24752900       4.10115900       1.00036000
C       -4.15398400       3.76042700      -1.61782400
H       -3.23129400       1.81488200      -1.51803000
C       -3.96235900       5.12476500       0.37110900
H       -2.88492900       4.23728300       2.01636300
C       -4.41725700       4.95632500      -0.94012500
H       -4.49977900       3.62606300      -2.63955400
H       -4.15508900       6.05404600       0.90080400
H       -4.96749500       5.75316300      -1.43354000
C       -3.24737200       0.70704900       1.54666300
C       -2.59235500      -0.34372100       2.32204900
H       -3.77008800       0.27888800       0.68159300
H       -4.00483000       1.20881000       2.16148700
C       -2.01928900      -1.19437400       2.96287700
H       -1.52600400      -1.95177800       3.53106100
Cl       0.99991500       2.24998200      -1.91226900
Cl       0.67894900       3.03049200       1.14645600
O        1.39651700       0.38278400       0.86579700
O        0.14199700      -0.21967800      -1.27161400
C        1.91993500      -1.78413300       0.04322500
C        0.50387400      -2.14558400       0.01136800
C       -1.66520800      -1.59611900      -0.79943900
C        3.58466700      -0.09883500       0.34088200
C        4.61960100      -0.97584100       0.00707900
C        2.92754400      -2.69454800      -0.27553500
C        4.25921500      -2.30463900      -0.28944200
C       -0.00599600      -3.32125100       0.55952300
C       -1.35600800      -3.62253200       0.43645300
C       -2.22394800      -2.75024200      -0.24644500
H        2.64012100      -3.70693200      -0.53392000
H        5.02628300      -3.03153600      -0.53088800
H        0.66867300      -3.98171100       1.09164000
H       -1.74107800      -4.53868800       0.86979500
H       -2.22475300      -0.84649400      -1.33743000
N        2.30149700      -0.51249600       0.36619700
N       -0.35403300      -1.32787500      -0.66616300
H        3.73140000       0.94038100       0.60133700
C       -3.67250300      -2.98896100      -0.36390800
C       -4.39414400      -2.53418700      -1.48442800
C       -4.35915600      -3.65822000       0.66584400
C       -5.76865100      -2.74897300      -1.57193700
H       -3.87751100      -2.03607300      -2.30004800
C       -5.73483900      -3.86513500       0.57745100
H       -3.82054800      -3.98543800       1.54966500
C       -6.44307300      -3.41273100      -0.54116300
H       -6.31220700      -2.40321900      -2.44641200
H       -6.25552400      -4.37110600       1.38529100
H       -7.51504300      -3.57530900      -0.60895400
C        6.01468500      -0.50174000      -0.02070600
C        6.44330900       0.53793000       0.82685500
C        6.94034600      -1.08715500      -0.90513500
C        7.76530700       0.97796700       0.78990200
H        5.75336700       0.98483100       1.53681700
C        8.25968100      -0.63901100      -0.94362000
H        6.62151400      -1.87257700      -1.58373100
C        8.67648800       0.39313400      -0.09604400
H        8.08530300       1.77289500       1.45713700
H        8.96028300      -1.09053400      -1.63997200
H        9.70556000       0.73981200      -0.12586600
