65
Properties=species:S:1:pos:R:3 pbc="F F F"
Si       0.40422400       1.64570500      -0.55037900
O       -1.22757700       1.77829300      -0.33337800
C       -2.02944200       2.38536300       0.71569300
C       -2.29040900       1.33954500       1.78053800
H       -1.47120300       3.21322700       1.15833300
C       -3.33984600       0.41506400       1.68804600
C       -1.40751300       1.25929900       2.86744700
C       -3.50216100      -0.57076700       2.66417300
H       -4.03906900       0.45481200       0.85838400
C       -1.56263700       0.26903300       3.83997300
H       -0.59309300       1.97548600       2.94085800
C       -2.61239400      -0.65011800       3.73956800
H       -4.32557300      -1.27432900       2.58382700
H       -0.87121200       0.21944300       4.67710200
H       -2.74116800      -1.41729800       4.49859700
C       -3.30069000       2.95036300       0.05453600
C       -3.00723900       4.02938200      -0.88658500
H       -3.95792700       3.31744500       0.85295600
H       -3.83900500       2.14687600      -0.46207300
C       -2.74059200       4.92145800      -1.65819000
H       -2.50796200       5.71028300      -2.33969100
Cl       1.40539200       2.35057400      -2.26952800
Cl       1.05847700       3.33415000       0.71897000
O        1.28762300       0.57995200       0.58713000
O        0.07327500       0.11663900      -1.60894000
C        1.53205900      -1.65454400      -0.16998000
C        0.08106200      -1.80042200      -0.26670900
C       -1.94758100      -0.93866900      -1.16796600
C        3.40983700      -0.22823500       0.21061700
C        4.31921300      -1.25807700      -0.04427000
C        2.40855500      -2.71085100      -0.41724000
C        3.78180700      -2.52324200      -0.35190500
C       -0.62285100      -2.87321900       0.27562900
C       -1.99606400      -2.97154400       0.09541700
C       -2.69679900      -1.99075300      -0.63128400
H        1.98863000      -3.67437600      -0.68074100
H        4.44439800      -3.36134300      -0.53547100
H       -0.08030800      -3.61824100       0.84575400
H       -2.52686900      -3.81766400       0.51555000
H       -2.36150700      -0.11830200      -1.73486800
N        2.08024800      -0.44722800       0.15920400
N       -0.61540600      -0.87594700      -0.99238400
H        3.69218800       0.78383700       0.46804200
C       -4.15798800      -2.02623300      -0.81820100
C       -4.76174000      -1.40833000      -1.93064900
C       -4.97870400      -2.66792200       0.12894000
C       -6.14654600      -1.42790600      -2.08652400
H       -4.14939600      -0.93462800      -2.69195900
C       -6.36358500      -2.68075100      -0.02688400
H       -4.53741200      -3.13300200       1.00434600
C       -6.95250300      -2.06019300      -1.13381600
H       -6.59560900      -0.95473100      -2.95484900
H       -6.98339400      -3.16853600       0.71981100
H       -8.03203600      -2.07074700      -1.25416900
C        5.76941500      -1.00492100       0.02230400
C        6.29445700      -0.03413400       0.89664700
C        6.65168400      -1.74073500      -0.79129200
C        7.66852900       0.19215300       0.95534700
H        5.63365800       0.52289500       1.55412800
C        8.02454500      -1.50637100      -0.73423800
H        6.26144000      -2.47563800      -1.48868700
C        8.53687000      -0.54110100       0.13955200
H        8.06167900       0.93552800       1.64258600
H        8.69355400      -2.07205700      -1.37615200
H        9.60732100      -0.36168700       0.18480300
