71
Properties=species:S:1:pos:R:3 pbc="F F F"
Si       0.33098000       1.78827100      -0.64054900
O       -1.29952900       1.95006300      -0.54200300
C       -2.38094700       2.26698400       0.36331500
C       -2.44643600       1.28892300       1.51839000
H       -3.27410600       2.13060400      -0.25498200
C       -1.38098900       1.14803200       2.41920100
C       -3.59906400       0.51594800       1.70059900
C       -1.45357300       0.21968300       3.45897900
H       -0.49199400       1.75972700       2.30536900
C       -3.68343400      -0.39740300       2.75455700
H       -4.42849700       0.62082500       1.00620000
C       -2.60519200      -0.55743400       3.62895200
H       -0.61578400       0.10969800       4.14250500
H       -4.58626700      -0.98699400       2.88640900
H       -2.66379900      -1.27558400       4.44246100
C       -2.38410300       3.73414800       0.85218200
C       -2.36846200       4.70117400      -0.24138700
H       -3.30261600       3.85548500       1.44158300
H       -1.54106000       3.90696100       1.52711000
C       -2.36256400       5.48608500      -1.16158800
H       -2.34853000       6.18522600      -1.96886800
Cl       1.36579000       2.45106900      -2.35548000
Cl       0.94869800       3.51567400       0.59659200
O        1.18185400       0.78352400       0.57486700
O        0.07375700       0.19594800      -1.66106400
C        1.43013100      -1.47253600      -0.08771100
C       -0.03682300      -1.57010500      -0.12876200
C       -1.98580600      -0.79302700      -1.26784700
C        3.30814400      -0.02275500       0.24352000
C        4.21226900      -1.05128500      -0.02967300
C        2.29358100      -2.53359000      -0.40240300
C        3.67179400      -2.30261900      -0.35889000
C       -0.80496800      -2.47829400       0.60629400
C       -2.17617600      -2.54909000       0.33892000
C       -2.79234700      -1.73354800      -0.61793600
H        4.33997300      -3.12540300      -0.59080200
H       -2.77029900      -3.26811700       0.89172200
H       -2.34574000      -0.05172200      -1.96536300
N        1.98576000      -0.26051400       0.21018200
N       -0.66960400      -0.73926300      -1.01590000
H        3.58802000       0.99475500       0.47999700
C       -4.23518800      -1.79793400      -0.91564200
C       -4.72636200      -1.41804500      -2.17932700
C       -5.14709700      -2.23471200       0.06315600
C       -6.09205200      -1.47372900      -2.45417400
H       -4.03931900      -1.10264400      -2.95907300
C       -6.51229300      -2.28470800      -0.21268200
H       -4.79236300      -2.50420000       1.05228300
C       -6.98976000      -1.90473500      -1.47177900
H       -6.45431100      -1.18630000      -3.43699000
H       -7.20449600      -2.61233900       0.55763700
H       -8.05409600      -1.94404700      -1.68574200
C        5.66384400      -0.79482400       0.01787600
C        6.19684900       0.14493100       0.91998900
C        6.53551300      -1.49101500      -0.83960200
C        7.57059100       0.37849600       0.96493700
H        5.54113700       0.67298100       1.60621600
C        7.90797000      -1.24944700      -0.79632600
H        6.13644500      -2.19937000      -1.55929800
C        8.42930400      -0.31629300       0.10661600
H        7.97064800       1.09809600       1.67328500
H        8.56961900      -1.78387900      -1.47187100
H        9.49921300      -0.13103100       0.14049200
C        1.77408000      -3.88907600      -0.80008600
H        1.69578000      -4.53829400       0.07942400
H        0.78730800      -3.82657400      -1.26541400
H        2.47042900      -4.35755400      -1.50064400
C       -0.21206400      -3.34291600       1.68480100
H       -0.78170000      -3.19590600       2.60889900
H       -0.29012300      -4.40100400       1.41194200
H        0.83453800      -3.10337300       1.88111600
