71
Properties=species:S:1:pos:R:3 pbc="F F F"
Si      -0.30155200       1.66979100       1.18448800
O        0.67793600       2.49938200       0.15304100
C        0.72244400       2.58035400      -1.29617500
C        1.68671600       1.55831900      -1.85473000
H       -0.27299100       2.41033900      -1.71156300
C        3.03244500       1.55307600      -1.45689100
C        1.25108800       0.63110500      -2.80818600
C        3.93063900       0.64646100      -2.01965400
H        3.37338600       2.26195100      -0.70733100
C        2.14847200      -0.28305300      -3.36863900
H        0.20687000       0.62932400      -3.11039400
C        3.49019600      -0.27333700      -2.97778900
H        4.97028300       0.65090800      -1.70723300
H        1.80158600      -0.99785000      -4.11016100
H        4.19043700      -0.97790900      -3.41838700
C        1.15989500       4.02100100      -1.64625600
C        0.18178200       5.02418100      -1.23149800
H        1.30922600       4.06999100      -2.73239900
H        2.13120600       4.21823700      -1.17616600
C       -0.64877400       5.83269200      -0.88602800
H       -1.37388400       6.55317100      -0.57629500
Cl       0.63015700       2.61469700       2.94250900
Cl      -2.26265600       2.26869800       1.71780200
O       -0.99583100       0.70623800      -0.31976200
O        0.16537500       0.08304300       1.86801200
C       -1.22139500      -1.55664100       0.20070100
C        0.24823000      -1.59688500       0.21290300
C        2.23504300      -0.68542600       1.19365400
C       -3.12678800      -0.18991100      -0.25862600
C       -3.99794700      -1.26585000      -0.05977800
C       -2.04816800      -2.65807400       0.45261000
C       -3.43046600      -2.48984600       0.31762000
C        1.02518300      -2.43746200      -0.59425200
C        2.41508900      -2.40742500      -0.44267600
C        3.05452400      -1.55141500       0.46377300
H       -4.07489600      -3.34324700       0.50101100
H        3.00824200      -3.07863900      -1.05376300
H        2.59294300       0.06339300       1.88587100
N       -1.80044300      -0.35411800      -0.11412200
N        0.90052300      -0.74356500       1.05819200
H       -3.44021100       0.81371800      -0.50509800
C        4.51720600      -1.51843700       0.64618300
C        5.08211100      -1.08159100       1.85988900
C        5.37534000      -1.92313300      -0.39330400
C        6.46598700      -1.04565200       2.02452400
H        4.44341600      -0.79460700       2.68992300
C        6.75812800      -1.88318000      -0.22716400
H        4.96381400      -2.23669000      -1.34627100
C        7.30867700      -1.44310800       0.98137000
H        6.88550000      -0.71339300       2.96960100
H        7.40612700      -2.18675900      -1.04429200
H        8.38691800      -1.41135500       1.10982700
C       -5.45238200      -1.07713300      -0.22095700
C       -5.95695700      -0.15167000      -1.15366000
C       -6.35680300      -1.82220700       0.55825200
C       -7.33225900       0.01955300      -1.30619100
H       -5.27450300       0.41609000      -1.77949600
C       -7.73138500      -1.64372700       0.40758300
H       -5.98427000      -2.52064500       1.30150300
C       -8.22321900      -0.72444700      -0.52556700
H       -7.70791900       0.72944000      -2.03742100
H       -8.41850200      -2.21643700       1.02379100
H       -9.29463500      -0.58794700      -0.64243600
C       -1.49220100      -3.99331800       0.86972600
H       -1.42554000      -4.66391500       0.00550000
H       -0.49746600      -3.90322000       1.31254100
H       -2.16389500      -4.45668300       1.59810200
C        0.41632800      -3.33607300      -1.63555300
H        0.99346500      -3.25080100      -2.56152900
H        0.46263600      -4.38126400      -1.31024000
H       -0.62421800      -3.08196700      -1.84540300
