71
Properties=species:S:1:pos:R:3 pbc="F F F"
Si       0.21895500       1.49596300      -0.09512300
O       -1.41607700       1.34370700       0.06362400
C       -2.39559600       1.86684100       0.98701300
C       -3.36258000       2.76354200       0.24823400
H       -1.89779700       2.43462000       1.77579100
C       -4.04618100       2.30157500      -0.88552900
C       -3.60396200       4.06139100       0.71186700
C       -4.95603000       3.12744200      -1.54732400
H       -3.85998000       1.29702600      -1.25482600
C       -4.51915900       4.88994700       0.05396700
H       -3.06915700       4.42376300       1.58657800
C       -5.19614500       4.42435800      -1.07673000
H       -5.47863900       2.76178400      -2.42743800
H       -4.69794900       5.89720500       0.42089700
H       -5.90500400       5.06771400      -1.59132200
C       -3.12559000       0.65953300       1.62399100
C       -2.23464100      -0.19631600       2.40215200
H       -3.92398400       1.05359200       2.26516900
H       -3.61235700       0.07841600       0.83056100
C       -1.46919500      -0.88708800       3.03396400
H       -0.80086700      -1.49737400       3.60022100
Cl       1.14014100       2.49381600      -1.71004200
Cl       0.53335700       3.14952600       1.33846300
O        1.27787400       0.50979500       0.95816800
O        0.14736000       0.01970200      -1.29168800
C        1.91445800      -1.53240000      -0.05675500
C        0.49556900      -1.92128500      -0.03194300
C       -1.66788500      -1.35953700      -0.86889900
C        3.49116600       0.21307300       0.39724500
C        4.55359900      -0.55366300      -0.08705700
C        2.93942400      -2.33298100      -0.58279700
C        4.24401500      -1.82969900      -0.57835000
C       -0.02393400      -3.05123800       0.60787200
C       -1.39175700      -3.31414900       0.47442200
C       -2.23957100      -2.48349700      -0.26755100
H        5.03722900      -2.45349300      -0.97697700
H       -1.80143400      -4.18630900       0.97357000
H       -2.21628800      -0.61603600      -1.42620900
N        2.24396200      -0.28693900       0.40209500
N       -0.35840300      -1.10897700      -0.72926900
H        3.58497100       1.22262900       0.77280700
C       -3.69426200      -2.70111900      -0.36951900
C       -4.40535400      -2.30070500      -1.51647800
C       -4.39648500      -3.28432800       0.70106600
C       -5.78554600      -2.48360200      -1.59044300
H       -3.87625500      -1.86802900      -2.36104100
C       -5.77754300      -3.46070400       0.62528800
H       -3.86608600      -3.56897300       1.60464700
C       -6.47564600      -3.06209600      -0.51968900
H       -6.32109200      -2.17923100      -2.48505600
H       -6.30992600      -3.90071300       1.46362800
H       -7.55171300      -3.19984400      -0.57666700
C        5.92210400      -0.00362000      -0.09153800
C        6.33715600       0.89850900       0.90601800
C        6.83074800      -0.37368800      -1.10036100
C        7.63166300       1.41622900       0.89398800
H        5.65786200       1.17347900       1.70784800
C        8.12221700       0.15123500      -1.11229100
H        6.51789300      -1.04909800      -1.89094500
C        8.52654400       1.04611700      -0.11561800
H        7.94300700       2.10357100       1.67518400
H        8.81047000      -0.13175900      -1.90350400
H        9.53358400       1.45348600      -0.12615600
C        2.66353600      -3.69074300      -1.17105100
H        2.79368400      -4.46950400      -0.41116900
H        1.64658700      -3.76528800      -1.56409400
H        3.37326500      -3.89005100      -1.97833100
C        0.82900200      -3.95016100       1.46086500
H        0.31752000      -4.13779800       2.41046000
H        0.97281700      -4.91691300       0.96575300
H        1.80780600      -3.51441200       1.67039100
