65
Properties=species:S:1:pos:R:3 pbc="F F F"
Si       0.23528500       1.31803000      -0.07198300
O       -1.36013500       1.22245800       0.32999300
C       -2.19612800       2.09480000       1.11665800
C       -2.58188900       3.33990100       0.34941800
H       -1.67495100       2.37150000       2.03711200
C       -2.87998300       3.27738100      -1.01786300
C       -2.69420000       4.56112200       1.02322300
C       -3.27937800       4.42685800      -1.70393600
H       -2.78366300       2.33272900      -1.54501800
C       -3.10061400       5.71067100       0.34000700
H       -2.45107100       4.61220100       2.08203500
C       -3.39330900       5.64564200      -1.02624500
H       -3.50077500       4.37180800      -2.76669500
H       -3.17836200       6.65613900       0.87037600
H       -3.70221500       6.54000200      -1.56095700
C       -3.45700500       1.27634900       1.48599700
C       -3.15133900       0.06723900       2.24636700
H       -3.98790600       1.02674500       0.55844000
H       -4.11972300       1.92981200       2.06648500
C       -2.86578500      -0.92917000       2.86945000
H       -2.62879700      -1.81122800       3.42272000
Cl       0.95707700       2.14332100      -1.86964100
Cl       0.82592800       3.01691400       1.18095000
O        1.30966100       0.30586000       0.95250500
O       -0.02741600      -0.24848700      -1.14438200
C        1.71988200      -1.88917000       0.15467400
C        0.28833200      -2.18431900       0.15007800
C       -1.87144100      -1.59903000      -0.66098500
C        3.47158200      -0.27798000       0.35345300
C        4.46536700      -1.20387600       0.01172300
C        2.67428400      -2.85406500      -0.14312700
C        4.02162800      -2.51758800      -0.21050300
C       -0.24071600      -3.35051300       0.68669000
C       -1.59588000      -3.62749200       0.55274900
C       -2.45819300      -2.75675800      -0.13078400
H        2.34015400      -3.85800800      -0.37413300
H        4.74875100      -3.27573400      -0.47869200
H        0.41734300      -4.02239400       1.22384100
H       -2.00686900      -4.52788000       0.99517900
N        2.15741600      -0.61904600       0.42906400
N       -0.54976400      -1.32398900      -0.51579200
C       -3.88959500      -3.06408700      -0.31133500
C       -4.27641900      -4.39598400      -0.55233200
C       -4.87835000      -2.06868200      -0.21376200
C       -5.62359100      -4.72266800      -0.69771200
H       -3.51895100      -5.16859600      -0.64828600
C       -6.22474400      -2.40264800      -0.34881100
H       -4.59796500      -1.04500400       0.00085700
C       -6.60135400      -3.72733300      -0.59450800
H       -5.90907700      -5.75172200      -0.89564800
H       -6.98040600      -1.62796200      -0.25708300
H       -7.65142000      -3.98273800      -0.70532900
C        5.88902900      -0.82813200      -0.07698900
C        6.86487900      -1.73312900       0.38169000
C        6.29485100       0.39525100      -0.64293700
C        8.21855800      -1.41760100       0.28136600
H        6.56074600      -2.67095400       0.83726800
C        7.65108700       0.69938400      -0.75023900
H        5.55768400       1.09435400      -1.02244000
C        8.61502500      -0.20169500      -0.28607700
H        8.96253400      -2.11759500       0.65014600
H        7.95459000       1.64018900      -1.19992500
H        9.67051200       0.04274500      -0.36526500
F        3.73854200       0.96558000       0.67526900
F       -2.54334500      -0.74650000      -1.39968300
