65
Properties=species:S:1:pos:R:3 pbc="F F F"
Si       0.10085700       1.07227600       1.26626700
O        0.75839900       2.13677500       0.19927100
C        0.31941900       2.57130100      -1.11600500
C       -1.00225900       3.29787500      -1.02708800
H        0.21871200       1.70515400      -1.77442600
C       -1.19052000       4.32426700      -0.09097900
C       -2.04823700       2.95110800      -1.88867200
C       -2.41389500       4.99249300      -0.01810700
H       -0.38506300       4.58362700       0.59067700
C       -3.27264900       3.62235900      -1.82067000
H       -1.90503800       2.14474900      -2.60400400
C       -3.45722100       4.64395600      -0.88413700
H       -2.55545800       5.78286300       0.71431600
H       -4.08188400       3.34233300      -2.49005100
H       -4.41011300       5.16331900      -0.82491400
C        1.44211700       3.47870100      -1.66635000
C        2.67725600       2.74539200      -1.93865700
H        1.62068800       4.28971500      -0.94957500
H        1.07514400       3.93744300      -2.59311100
C        3.67533700       2.10715200      -2.18481700
H        4.56515600       1.56274200      -2.41199200
Cl      -1.83691800       1.10157600       2.10280100
Cl       1.04940900       2.01521400       2.99105200
O       -0.58258100       0.09982500      -0.28932800
O        0.95304400      -0.44634700       1.68071100
C       -0.48500900      -2.21567900       0.06601900
C        0.97335500      -2.11585400       0.00610800
C        2.96170400      -0.94448200       0.62759900
C       -2.57012200      -1.10818400      -0.24820400
C       -3.29924400      -2.29756800      -0.11199900
C       -1.15686600      -3.42516100       0.17526600
C       -2.54548600      -3.46121200       0.10916700
C        1.74270600      -2.95274700      -0.79136700
C        3.11762900      -2.76577900      -0.88636600
C        3.77599000      -1.73793800      -0.19097600
H       -0.58087300      -4.32784400       0.33763400
H       -3.06550000      -4.40399000       0.23475800
H        1.24334600      -3.71534400      -1.37627500
H        3.69743800      -3.40561200      -1.54156600
N       -1.21641800      -1.06573600      -0.12044900
N        1.62020600      -1.14327400       0.72152900
C        5.23328500      -1.53055100      -0.28951300
C        6.07534100      -2.65272100      -0.41173900
C        5.80014200      -0.24175400      -0.29873100
C        7.45296600      -2.48824000      -0.54057100
H        5.65356200      -3.65313000      -0.38189800
C        7.17800100      -0.08432900      -0.44023300
H        5.16748200       0.63503700      -0.22357100
C        8.00793700      -1.20400100      -0.55855900
H        8.09294000      -3.36194100      -0.62141700
H        7.60243300       0.91515100      -0.45950400
H        9.08189600      -1.07702300      -0.66109900
C       -4.77039600      -2.32593200      -0.22435600
C       -5.38936600      -3.41178400      -0.87199400
C       -5.56997000      -1.31015100       0.33272100
C       -6.77858000      -3.47615000      -0.96570200
H       -4.78111500      -4.19163300      -1.32107200
C       -6.95926700      -1.38653100       0.24546000
H       -5.10987200      -0.47748400       0.85379500
C       -7.56704500      -2.46499300      -0.40611700
H       -7.24460700      -4.31235000      -1.47875500
H       -7.56734900      -0.60402900       0.68990600
H       -8.64975300      -2.51719900      -0.47771100
F       -3.13311400       0.03131900      -0.57973300
F        3.43242000       0.00557500       1.39876200
