65
Properties=species:S:1:pos:R:3 pbc="F F F"
Si      -0.27651300      -1.69891600      -0.64148200
O        1.33459100      -1.79717500      -0.35246300
C        2.28765600      -2.11440400       0.69482100
C        2.16230300      -1.14408200       1.85042800
H        3.25404200      -1.95404100       0.20663500
C        1.04346600      -1.15812600       2.69623500
C        3.17225000      -0.20019000       2.07285800
C        0.92868900      -0.22605500       3.72891300
H        0.25729300      -1.89024200       2.54136300
C        3.06218900       0.73158900       3.10864300
H        4.04911600      -0.19305100       1.43076100
C        1.93581100       0.72398300       3.93542200
H        0.05555300      -0.24372600       4.37584600
H        3.85260900       1.46073900       3.26566000
H        1.84508300       1.44836600       4.74048900
C        2.25930500      -3.58976800       1.15130500
C        2.39532600      -4.52931400       0.04233600
H        1.34676100      -3.79654600       1.71657700
H        3.10317700      -3.70673200       1.84434100
C        2.51363300      -5.28621200      -0.89340500
H        2.60964200      -5.96188300      -1.71499500
Cl      -1.09685500      -2.37042300      -2.46160800
Cl      -1.01800700      -3.40453500       0.52138500
O       -1.22151000      -0.66861300       0.48815200
O        0.04188100      -0.08239400      -1.65218200
C       -1.34649100       1.63547500      -0.06203900
C        0.11058600       1.72135000      -0.14687300
C        2.08909900       0.94859300      -1.22156800
C       -3.29808100       0.26921000       0.09475600
C       -4.16360500       1.35812000      -0.06765000
C       -2.16363400       2.75108700      -0.19000700
C       -3.54785200       2.61427400      -0.18738000
C        0.85414600       2.69918600       0.49881500
C        2.22762200       2.77037400       0.30112000
C        2.89289100       1.89670100      -0.57412900
H       -1.69952900       3.71751400      -0.34464500
H       -4.17310300       3.49003000      -0.31995400
H        0.35201000       3.37394100       1.18108900
H        2.80856100       3.50661100       0.84385000
N       -1.94673800       0.41516400       0.11087500
N        0.75490900       0.85008700      -0.98922800
C        4.34938800       1.98101300      -0.79621000
C        4.96924400       3.24537100      -0.79082900
C        5.14414300       0.83165300      -0.96808900
C        6.34839000       3.35694400      -0.95630400
H        4.36630200       4.14160100      -0.67949800
C        6.52471900       0.94832300      -1.12161900
H        4.69425600      -0.15430900      -0.96152900
C        7.13077800       2.20876400      -1.11940900
H        6.81108100       4.33950900      -0.96255900
H        7.12685400       0.05241200      -1.24076500
H        8.20615300       2.29599300      -1.24573000
C       -5.62962000       1.19566200      -0.08023600
C       -6.43008100       2.15770300       0.56375100
C       -6.24507400       0.12260100      -0.75140300
C       -7.81902400       2.04445000       0.54101800
H       -5.96266800       2.97783100       1.10118100
C       -7.63525000       0.02207900      -0.77990000
H       -5.64256100      -0.61493100      -1.27058100
C       -8.42489000       0.97799100      -0.13226500
H       -8.42732200       2.78483200       1.05223200
H       -8.10150800      -0.80252700      -1.31097700
H       -9.50760200       0.89179400      -0.15106700
F       -3.72336500      -0.95520900       0.29814600
F        2.55831600       0.12616000      -2.13141200
