71
Properties=species:S:1:pos:R:3 pbc="F F F"
Si       0.15142400       1.45880000       0.26835500
O       -1.15244600       2.35159200      -0.24669500
C       -2.56852400       2.29794000      -0.06673400
C       -3.15295100       3.63287100      -0.48144900
H       -2.97183700       1.51673200      -0.71415000
C       -2.63417500       4.82809100       0.03525000
C       -4.24880800       3.67574600      -1.34952400
C       -3.20694500       6.05197600      -0.31542700
H       -1.77533100       4.79227500       0.70006000
C       -4.82717200       4.90095400      -1.69845200
H       -4.64746100       2.74836900      -1.75517700
C       -4.30660300       6.09096400      -1.18179100
H       -2.79692200       6.97552000       0.08517000
H       -5.67655900       4.92519200      -2.37620700
H       -4.75129900       7.04438400      -1.45488200
C       -2.97805400       1.99252600       1.40103900
C       -2.46447500       0.72366000       1.90128200
H       -4.07394000       1.99732000       1.44416800
H       -2.61473000       2.80542000       2.04050700
C       -2.00365200      -0.31414800       2.32183900
H       -1.60605300      -1.21182700       2.74098800
Cl       1.62674200       2.17325300      -1.05667700
Cl       0.41973400       2.57832100       2.11236800
O        1.09337700       0.12927400       1.16907200
O       -0.45534100       0.01605600      -0.88380500
C        1.68767000      -1.61825000      -0.30116400
C        0.30932000      -2.10472400      -0.15361700
C       -2.00582800      -1.64727000      -0.46378400
C        3.31474000      -0.07073900       0.51790700
C        4.34241500      -0.66161600      -0.22554200
C        2.65749000      -2.23556700      -1.09283300
C        3.96452800      -1.73361900      -1.04007300
C        0.00470200      -3.39938900       0.27591900
C       -1.34107000      -3.78242000       0.32161100
C       -2.38133900      -2.93044600      -0.05422800
H        4.72056600      -2.18892700      -1.67142700
H       -1.59046700      -4.77450700       0.68346600
N        2.04050400      -0.52433600       0.44597600
N       -0.71211400      -1.23745800      -0.47461000
C       -3.79577200      -3.35490800      -0.01560100
C       -4.13234900      -4.65672700      -0.42780000
C       -4.80494000      -2.49943900       0.46262800
C       -5.45600700      -5.09168300      -0.37190600
H       -3.35968000      -5.31723900      -0.81081000
C       -6.12513400      -2.94427300       0.52628300
H       -4.55315200      -1.50260200       0.80879200
C       -6.45526700      -4.23695000       0.10547100
H       -5.70703200      -6.09462700      -0.70491800
H       -6.89615400      -2.28123900       0.90806400
H       -7.48617500      -4.57676500       0.14960600
C        5.73719300      -0.18007000      -0.16038400
C        6.78397500      -1.12029000      -0.16891400
C        6.04297800       1.19283600      -0.12839100
C        8.11130200      -0.69522700      -0.13996700
H        6.55529700      -2.18222000      -0.17579100
C        7.37311500       1.61141100      -0.11055400
H        5.24729100       1.92977800      -0.14270000
C        8.40902600       0.67141500      -0.11238300
H        8.91146200      -1.42968900      -0.13421600
H        7.59976600       2.67354200      -0.09803400
H        9.44353300       1.00241200      -0.09142400
F        3.51426700       0.92794700       1.34679300
F       -2.88073400      -0.77667500      -0.91793800
C        1.05922300      -4.37319900       0.73257200
H        1.22824400      -5.13652500      -0.03524400
H        2.01030300      -3.88409200       0.95049800
H        0.71072800      -4.88402200       1.63522400
C        2.33664200      -3.37675400      -2.01988200
H        2.83390300      -3.21032000      -2.98030200
H        2.71540700      -4.31916900      -1.60946500
H        1.26347300      -3.47747100      -2.19175800
