71
Properties=species:S:1:pos:R:3 pbc="F F F"
Si      -0.27829600      -1.87366000      -0.51856800
O        1.35001700      -1.91826400      -0.33009900
C        2.39991900      -2.15961000       0.63573200
C        2.38966700      -1.11420900       1.73213600
H        3.31622400      -2.03826200       0.04920500
C        1.28419800      -0.95751500       2.58054600
C        3.50749000      -0.29145400       1.91229800
C        1.28552100       0.03084100       3.56609600
H        0.42111000      -1.60562500       2.47086200
C        3.51701900       0.69115800       2.90612600
H        4.36963400      -0.40912500       1.26167100
C        2.40104100       0.85988500       3.73031500
H        0.41902100       0.14924800       4.21109100
H        4.38962800       1.32715700       3.02803400
H        2.40170900       1.62698100       4.50000800
C        2.42190600      -3.59716600       1.20381600
C        2.48068700      -4.61827700       0.16209800
H        1.55619300      -3.76017600       1.85163200
H        3.31774500      -3.65797900       1.83593000
C        2.53335200      -5.44397300      -0.71993400
H        2.57201500      -6.18016100      -1.49276800
Cl      -1.19080000      -2.66447700      -2.24223800
Cl      -0.88467500      -3.53144600       0.78602800
O       -1.19557900      -0.82045200       0.61061600
O       -0.06293300      -0.29748000      -1.63425200
C       -1.37773100       1.44020900      -0.06906200
C        0.09146100       1.49582900      -0.11989500
C        1.99862300       0.74069000      -1.33961500
C       -3.29842100       0.02872100       0.17737100
C       -4.18462900       1.07269900      -0.10835900
C       -2.20778600       2.52648400      -0.35914800
C       -3.59308100       2.31417900      -0.36328100
C        0.88532400       2.38256200       0.60430600
C        2.25420200       2.42100100       0.31339100
C        2.84881100       1.63693200      -0.68095900
H       -4.24179100       3.14590900      -0.61710500
H        2.88929900       3.07903700       0.89553800
N       -1.95909500       0.22456600       0.19433900
N        0.68466400       0.65441900      -1.03349200
C        4.29115300       1.73321400      -0.98289700
C        4.91986100       2.99046700      -0.90585000
C        5.06613400       0.60115400      -1.29858700
C        6.28870800       3.11267400      -1.13879600
H        4.33035100       3.87529300      -0.68380600
C        6.43693600       0.72742900      -1.51974200
H        4.61041000      -0.38080900      -1.35449900
C        7.05224500       1.98092300      -1.44316300
H        6.75739500       4.09112600      -1.08724900
H        7.02453200      -0.15637600      -1.75042100
H        8.11950300       2.07569300      -1.62228500
C       -5.64825200       0.87977700      -0.12652200
C       -6.47762500       1.89395000       0.38721100
C       -6.23282900      -0.27590000      -0.67658800
C       -7.86391900       1.75189900       0.35638500
H       -6.03472100       2.78122400       0.83030800
C       -7.62058800      -0.40695700      -0.71385200
H       -5.60860600      -1.05754900      -1.09583900
C       -8.43887400       0.60201300      -0.19523800
H       -8.49388300       2.53553000       0.76716100
H       -8.06241200      -1.29752500      -1.15113400
H       -9.51935700       0.49228400      -0.21993800
F       -3.69264600      -1.18641600       0.48381000
F        2.40527000      -0.05189100      -2.30724600
C       -1.66930500       3.88557700      -0.71788500
H       -1.64733400       4.52876800       0.16929500
H       -0.65786700       3.83231300      -1.12636700
H       -2.32616900       4.35584400      -1.45481800
C        0.33112600       3.24552500       1.70353900
H        0.97807400       3.15845300       2.58183200
H        0.32128100       4.29667000       1.39569500
H       -0.68147500       2.95104100       1.98637800
