71
Properties=species:S:1:pos:R:3 pbc="F F F"
Si      -0.17155000       1.08173100       0.40694800
O       -1.26979300       2.26452000      -0.02355900
C       -1.22799800       3.68701400       0.09619900
C       -2.43731100       4.26736300      -0.60722000
H       -0.31524200       4.06833500      -0.37541300
C       -3.71015100       3.70813900      -0.42783600
C       -2.29507900       5.40867300      -1.40434400
C       -4.82467800       4.28318500      -1.04247200
H       -3.81917000       2.81644600       0.18299800
C       -3.41090600       5.98936200      -2.01610600
H       -1.30703200       5.84047400      -1.54826400
C       -4.67820200       5.42669700      -1.83671200
H       -5.80757400       3.84025300      -0.90272000
H       -3.28906800       6.87384500      -2.63604900
H       -5.54601500       5.87312600      -2.31527700
C       -1.22605600       4.11976100       1.59090300
C       -0.04095700       3.65091900       2.30065500
H       -2.13255600       3.72716000       2.06773100
H       -1.28008900       5.21478000       1.62520300
C        0.95399500       3.21081900       2.83147100
H        1.82977000       2.82894600       3.30849900
Cl      -1.38890000       0.44915100       2.11014500
Cl       1.52851400       2.08289700      -0.54108100
O       -0.57054700      -0.05968100      -0.90193600
O        1.01400400      -0.15788400       1.21924500
C        0.16572300      -2.22319400      -0.30566800
C        1.55393900      -1.73727200      -0.43880400
C        3.23368500      -0.33577400       0.52604300
C       -2.16462100      -1.67231600      -0.41901500
C       -2.55439600      -2.96678200      -0.05694700
C       -0.15690800      -3.53181200       0.05934700
C       -1.51279500      -3.86990900       0.17356300
C        2.49579600      -2.29315400      -1.30217100
C        3.81710600      -1.82823600      -1.22121800
C        4.23328600      -0.86048600      -0.30373500
H       -1.76982300      -4.87588300       0.48892600
H        4.55220600      -2.23108400      -1.91050500
N       -0.85924300      -1.33532300      -0.52646000
N        1.94755000      -0.73512500       0.42105000
C        5.63701000      -0.40887800      -0.22115400
C        6.67066100      -1.35440500      -0.34970800
C        5.96067900       0.95097000      -0.06197100
C        8.00368800      -0.94740300      -0.31358600
H        6.42813800      -2.40791500      -0.45631600
C        7.29588400       1.35266700      -0.03817700
H        5.17338400       1.69319400       0.01564700
C        8.31929800       0.40677500      -0.15979600
H        8.79467300      -1.68655900      -0.40124100
H        7.53629600       2.40612500       0.07197400
H        9.35818800       0.72347200      -0.13437500
C       -3.97266600      -3.35292700       0.07839000
C       -4.37923200      -4.62731900      -0.35786500
C       -4.91463800      -2.49298300       0.67227400
C       -5.70494300      -5.03137300      -0.20821500
H       -3.66088600      -5.28946700      -0.83270600
C       -6.23684100      -2.90759900       0.82822700
H       -4.61048200      -1.51726300       1.03582500
C       -6.63628200      -4.17336500       0.38644600
H       -6.01105100      -6.01243200      -0.55965400
H       -6.95450100      -2.24221300       1.29918400
H       -7.66886700      -4.48958000       0.50458200
F       -3.01913700      -0.71804400      -0.70666400
F        3.48091800       0.54256000       1.47191800
C        0.89164200      -4.56384700       0.37716900
H        1.06003900      -5.20991700      -0.49179300
H        1.84413100      -4.10951800       0.65763300
H        0.54449800      -5.19495400       1.20009300
C        2.13897700      -3.33681500      -2.32590500
H        2.57918600      -3.06114300      -3.28942900
H        2.55649800      -4.30760900      -2.03595700
H        1.05987700      -3.44179900      -2.45174500
