65
Properties=species:S:1:pos:R:3 pbc="F F F"
Si      -0.30948300       1.32297300       1.06806200
O        0.50611300       1.99926900      -0.18083300
C        1.55889100       2.97429000      -0.28240700
C        2.72996000       2.37573600      -1.03242700
H        1.88187700       3.28770500       0.71321900
C        2.53103500       1.57586200      -2.16628500
C        4.03471300       2.68201500      -0.62904600
C        3.62542300       1.09891600      -2.89156000
H        1.51940500       1.32777900      -2.47398900
C        5.13127500       2.20998600      -1.35727100
H        4.19031200       3.29144800       0.25834100
C        4.92797000       1.42186200      -2.49376400
H        3.46370600       0.47724000      -3.76834500
H        6.14020300       2.45172600      -1.03388900
H        5.77810500       1.04999000      -3.05915400
C        0.99816300       4.20247400      -1.04038000
C       -0.10514500       4.84724300      -0.33312600
H        1.82272300       4.91189600      -1.18507100
H        0.67288000       3.87361500      -2.03580700
C       -1.01857200       5.35387200       0.27632600
H       -1.82448300       5.80214300       0.81496700
Cl       0.63793100       2.33129700       2.76969300
Cl      -2.25681100       1.76801000       1.75207800
O       -1.07095500       0.30375300      -0.44577900
O        0.23277300      -0.24136400       1.72705200
C       -1.52637400      -1.85023600       0.30893400
C       -0.07817700      -2.09049600       0.32473400
C        2.13281800      -1.30848500       0.85636600
C       -3.28998300      -0.45590900      -0.52199800
C       -4.25062500      -1.43998100      -0.21587900
C       -2.44569200      -2.83754600       0.62705300
C       -3.79805500      -2.61690800       0.39731300
C        0.46887900      -3.20190000      -0.30024400
C        1.84897100      -3.34682600      -0.37565400
C        2.71698900      -2.38902600       0.16552200
H       -2.09062700      -3.77132200       1.04584200
H       -4.52272200      -3.38219900       0.65139900
H       -0.19614700      -3.91464200      -0.77217300
H        2.27385100      -4.19605000      -0.89939000
C        4.17930000      -2.54910800       0.01701600
Cl       3.04069800      -0.14954000       1.71545300
N       -1.97140500      -0.65233700      -0.19599500
N        0.76852600      -1.19409100       0.91555400
Cl      -3.67138900       1.01439400      -1.30871200
C       -5.69914500      -1.27609100      -0.48247100
C       -6.60408600      -1.49273300       0.57127700
C       -6.18973000      -0.97230000      -1.76302000
C       -8.46082700      -1.08318400      -0.92584000
C       -7.56466500      -0.88340900      -1.98133900
C       -7.97772500      -1.38678000       0.35083500
H       -6.22812900      -1.72361200       1.56410600
H       -8.66800400      -1.54043400       1.17530300
H       -9.53058200      -1.00506300      -1.09855000
H       -7.93578200      -0.66051900      -2.97760200
H       -5.50098400      -0.82720400      -2.58822000
C        4.77107000      -3.78749800       0.31972100
C        4.97250900      -1.50317300      -0.48312200
C        6.92945600      -2.92409200      -0.35597900
C        6.33968300      -1.69597200      -0.67452900
C        6.14309100      -3.96830700       0.14225600
H        4.16109400      -4.59640300       0.71233000
H        6.59678800      -4.92257100       0.39388800
H        7.99696500      -3.06816300      -0.49743300
H        6.94193000      -0.88598300      -1.07569500
H        4.52143000      -0.55378900      -0.74816500
