65
Properties=species:S:1:pos:R:3 pbc="F F F"
Si       0.19688000       1.36145300      -0.12884300
O       -1.38765000       1.23512600       0.31102700
C       -2.22794600       2.09818300       1.10105900
C       -2.67611000       3.31901900       0.32702000
H       -1.69165700       2.40958500       2.00153300
C       -2.92987200       3.25542900      -1.04838600
C       -2.89376200       4.52064700       1.01131000
C       -3.39125500       4.38361200      -1.73196100
H       -2.75061000       2.32878000      -1.58428000
C       -3.36159700       5.64777500       0.33100900
H       -2.68489700       4.57460900       2.07739500
C       -3.61113500       5.58145300      -1.04402700
H       -3.57750300       4.32753500      -2.80140000
H       -3.52091500       6.57778700       0.87044300
H       -3.96792100       6.45907100      -1.57664700
C       -3.45345000       1.25255400       1.52633200
C       -3.09626200       0.09244600       2.33869500
H       -4.12951700       1.90865900       2.08821500
H       -3.98934000       0.94174500       0.62048600
C       -2.77715900      -0.86033200       3.01156700
H       -2.50942900      -1.70492400       3.60742900
Cl       0.86417500       2.12332100      -1.97363600
Cl       0.73385700       3.14249700       1.03352200
O        1.32854700       0.44454000       0.92013800
O       -0.03860100      -0.26210000      -1.12619400
C        1.68973800      -1.78808700       0.26894100
C        0.24958000      -2.06670300       0.31377600
C       -1.89960400      -1.62042200      -0.64564300
C        3.50442200      -0.21371400       0.36375400
C        4.44307700      -1.22408500       0.08059700
C        2.59408500      -2.80328000      -0.01254500
C        3.95130000      -2.52376100      -0.09959500
C       -0.26625100      -3.17588700       0.96868600
C       -1.61221700      -3.48749600       0.83641400
C       -2.46163200      -2.72466600       0.02364600
H        2.21668000      -3.80363700      -0.18492600
H        4.65445800      -3.31988100      -0.31749000
H        0.39215200      -3.77566700       1.58460900
H       -2.02687500      -4.33635000       1.36867400
C       -3.87986000      -3.12044300      -0.11940600
Cl      -2.75573400      -0.70791800      -1.81209200
N        2.17062100      -0.52257100       0.46915900
N       -0.58311600      -1.29641100      -0.45456800
Cl       3.93172700       1.42611500       0.55604600
C        5.89557900      -0.96856200      -0.05707400
C        6.55611500      -1.44130500      -1.20423600
C        6.63188400      -0.32404700       0.95072200
C        8.65916000      -0.60763100      -0.34503000
C        8.00843900      -0.15182300       0.80662900
C        7.93068200      -1.25163200      -1.34993400
H        5.98832400      -1.93687500      -1.98677300
H        8.43021000      -1.60546000      -2.24715200
H        9.73008000      -0.46351800      -0.45707200
H        8.57279900       0.33661700       1.59572100
H        6.13513700       0.02128300       1.85145300
C       -4.18520600      -4.45724000      -0.42693300
C       -4.92222000      -2.20711700       0.10647000
C       -6.54907800      -3.95413100      -0.30167000
C       -6.24935800      -2.62606200       0.02122100
C       -5.51492700      -4.86836100      -0.52616200
H       -3.38056000      -5.16496600      -0.60558500
H       -5.74163300      -5.90021100      -0.77866800
H       -7.58427700      -4.27571200      -0.37397900
H       -7.04915100      -1.91640200       0.21240300
H       -4.69218400      -1.18429800       0.38072500
