71
Properties=species:S:1:pos:R:3 pbc="F F F"
Si       0.13347400       1.50620900      -0.05445800
O       -1.46687200       1.36601000       0.32125000
C       -2.34283500       2.22158000       1.08018300
C       -2.75748600       3.44662500       0.29427400
H       -1.84722900       2.52863400       2.00503800
C       -2.94792000       3.39188800      -1.09176700
C       -3.00656600       4.64386000       0.97560800
C       -3.37741700       4.52454700      -1.78860900
H       -2.74375100       2.46869700      -1.62457100
C       -3.44256000       5.77547600       0.28167400
H       -2.84684500       4.69068800       2.05053800
C       -3.62860800       5.71800400      -1.10381700
H       -3.51400800       4.47541200      -2.86587000
H       -3.62628000       6.70222000       0.81898400
H       -3.96022800       6.59926400      -1.64661300
C       -3.58286900       1.37069000       1.44746300
C       -3.25832400       0.21955200       2.28587300
H       -4.29068700       2.02603400       1.96975500
H       -4.06957000       1.05121900       0.51728400
C       -2.96210600      -0.72263700       2.98361700
H       -2.71457100      -1.55839600       3.60020200
Cl       0.90586700       2.33327100      -1.82960400
Cl       0.61475900       3.24769400       1.19608500
O        1.21966000       0.53825300       0.99580800
O       -0.08414200      -0.06911900      -1.14934300
C        1.64378000      -1.60604600       0.13711700
C        0.20193800      -1.89070700       0.26472500
C       -1.94013400      -1.44936200      -0.72412600
C        3.41815300       0.00514300       0.39668900
C        4.36717500      -0.93027400      -0.05530200
C        2.54388400      -2.54823300      -0.36576000
C        3.89186800      -2.18298300      -0.44434700
C       -0.31676600      -2.95468900       0.99876000
C       -1.67489900      -3.24718100       0.83611800
C       -2.50386200      -2.54090100      -0.03670300
H        4.60611700      -2.90745800      -0.82286300
H       -2.10790500      -4.06218600       1.40719200
C       -3.91170600      -2.96804400      -0.20652600
Cl      -2.78833300      -0.54460500      -1.90480100
N        2.10372600      -0.36019900       0.47840600
N       -0.63162300      -1.12989900      -0.51848400
Cl       3.81397200       1.61349200       0.80823300
C        5.81334700      -0.62783600      -0.16491300
C        6.47186200      -0.88307000      -1.37930800
C        6.54552800      -0.15035900       0.93419800
C        8.56771100      -0.17240000      -0.39933200
C        7.91784800       0.06937400       0.81590900
C        7.84239300      -0.64751800      -1.49634100
H        5.90570000      -1.24624100      -2.23249700
H        8.34106100      -0.83327400      -2.44325200
H        9.63522400       0.00773300      -0.49000700
H        8.47952600       0.42775700       1.67377100
H        6.04715700       0.02955800       1.88118600
C       -4.17897400      -4.31658000      -0.49676600
C       -4.97957200      -2.07547000      -0.02521600
C       -6.55629800      -3.86665900      -0.44065000
C       -6.29469500      -2.52617800      -0.13689900
C       -5.49630700      -4.76064300      -0.62092700
H       -3.35375400      -5.00860600      -0.64141800
H       -5.69305300      -5.80223900      -0.85837800
H       -7.58185000      -4.21325700      -0.53279300
H       -7.11489700      -1.83120100       0.01890400
H       -4.78053400      -1.04210100       0.23267300
C        2.11980900      -3.91571100      -0.82797700
H        2.27838200      -4.64920100      -0.02920700
H        1.06696500      -3.94452500      -1.11460200
H        2.73165700      -4.21643100      -1.68289200
C        0.51585900      -3.76156400       1.95620800
H        0.02143800      -3.77819700       2.93346000
H        0.59596700      -4.79774300       1.60986300
H        1.51942500      -3.35119300       2.08005300
