71
Properties=species:S:1:pos:R:3 pbc="F F F"
Si      -0.09588700       1.17764300       0.72230100
O       -1.22874800       2.32342400       0.29062400
C       -1.22780800       3.73960400       0.10267100
C       -2.32758700       4.08500200      -0.88181400
H       -0.26519700       4.06463000      -0.30589000
C       -3.64332100       3.65221300      -0.66139300
C       -2.04422000       4.86656500      -2.00686200
C       -4.65852400       3.99349300      -1.55673000
H       -3.86598800       3.04199000       0.20963800
C       -3.06038800       5.21405700      -2.90400600
H       -1.02408200       5.20182400      -2.18112600
C       -4.36915100       4.77714100      -2.68083600
H       -5.67494900       3.65130700      -1.37884200
H       -2.82880800       5.82046800      -3.77590600
H       -5.15948000       5.04361600      -3.37784700
C       -1.46715500       4.47253800       1.45127400
C       -0.35014500       4.36273800       2.38474700
H       -1.65570300       5.53073100       1.22864700
H       -2.38225300       4.06766400       1.90121000
C        0.59162900       4.27375900       3.13845100
H        1.42096100       4.18103200       3.80471100
Cl      -0.90861900       0.76519200       2.63411700
Cl       1.64885800       2.22638900       0.10931400
O       -0.63460400       0.11264000      -0.60714100
O        1.09156900      -0.34793000       1.30157300
C        0.03721500      -2.11670400      -0.37484700
C        1.42668500      -1.66203600      -0.58387700
C        3.28072000      -0.57766000       0.48609200
C       -2.28725800      -1.49226300      -0.21608300
C       -2.66126100      -2.83548900      -0.03127900
C       -0.28419900      -3.45652600      -0.14976700
C       -1.63488800      -3.78091900       0.01769400
C        2.24324300      -2.11950400      -1.61450500
C        3.59308700      -1.74959800      -1.58000100
C        4.14841100      -1.00579000      -0.53715400
H       -1.90476500      -4.81856200       0.18728400
H        4.24272100      -2.05795200      -2.39283400
C        5.59599200      -0.69255200      -0.54850700
Cl       3.82003700       0.19198800       1.91900500
N       -0.96541300      -1.18370700      -0.37213100
N        1.94569500      -0.84421600       0.39274100
Cl      -3.39601800      -0.19332300      -0.21903300
C       -4.06642400      -3.26878200       0.15038100
C       -4.38813200      -4.08441100       1.24838700
C       -5.06491900      -2.93231300      -0.77803400
C       -6.68476200      -4.20727600       0.49468300
C       -6.36562900      -3.40647700      -0.60727000
C       -5.69423700      -4.54363000       1.42247500
H       -3.61950900      -4.34007300       1.97234900
H       -5.93679700      -5.16156400       2.28221600
H       -7.70062800      -4.56834600       0.62847700
H       -7.12901600      -3.15180400      -1.33684400
H       -4.82135100      -2.31919400      -1.63943800
C        6.52191600      -1.72628600      -0.76667000
C        6.05368800       0.62837200      -0.40924200
C        8.33816100      -0.12824000      -0.68666900
C        7.41834400       0.90660300      -0.48423800
C        7.88763100      -1.44454400      -0.82691400
H        6.17026800      -2.74901000      -0.87111400
H        8.59746400      -2.25205600      -0.98211000
H        9.40103700       0.09111700      -0.73703300
H        7.76306100       1.93218700      -0.38757400
H        5.34255500       1.43521800      -0.26301000
C        0.75837300      -4.53893100      -0.07538000
H        0.87815500      -5.01609400      -1.05471200
H        1.73072700      -4.15197300       0.23643800
H        0.43648700      -5.30753700       0.63238500
C        1.72267300      -2.95263900      -2.75367500
H        2.05038200      -2.51205300      -3.70117200
H        2.13758300      -3.96561200      -2.70166000
H        0.63288400      -3.01782800      -2.75762500
