71
Properties=species:S:1:pos:R:3 pbc="F F F"
Si      -0.24050200      -1.84592700      -0.64027700
O        1.37591300      -1.93035800      -0.38387400
C        2.36952600      -2.23914900       0.61952000
C        2.26910400      -1.30817100       1.81053100
H        3.31552700      -2.04458300       0.10464300
C        1.13300700      -1.29460600       2.63257100
C        3.33443000      -0.45089800       2.10791500
C        1.05606700      -0.41634500       3.71483900
H        0.30681600      -1.96687800       2.42572000
C        3.26491100       0.42319800       3.19654500
H        4.22105100      -0.46124900       1.47967900
C        2.12109300       0.44612500       3.99884700
H        0.16778100      -0.40908200       4.34080300
H        4.09836900       1.08659100       3.41100400
H        2.06062200       1.12702100       4.84370500
C        2.39162500      -3.72432500       1.04861800
C        2.52890000      -4.63938500      -0.08033700
H        3.25229700      -3.83204500       1.72203200
H        1.49515900      -3.96182000       1.62791500
C        2.65041000      -5.37477700      -1.03274800
H        2.74839900      -6.03218900      -1.86877900
Cl      -1.08801300      -2.46813800      -2.46478700
Cl      -0.89537600      -3.62718400       0.47003700
O       -1.19194800      -0.89164200       0.54670400
O        0.03833500      -0.18646600      -1.60605300
C       -1.29740000       1.39917200       0.04043400
C        0.17686300       1.42923000       0.06000800
C        2.11781800       0.83466000      -1.22533300
C       -3.29197100       0.05187800       0.17403900
C       -4.10063000       1.18081800      -0.04879100
C       -2.05867100       2.53829000      -0.23322500
C       -3.44973700       2.39740200      -0.26257000
C        0.93382400       2.25043400       0.89001300
C        2.30449700       2.33732500       0.62847500
C        2.92253900       1.68184400      -0.44015800
H       -4.05725400       3.27314800      -0.46712700
H        2.92121300       2.94741300       1.27904900
C        4.36854000       1.89865000      -0.67714600
Cl       2.67628600       0.00950000      -2.61749700
N       -1.93409200       0.19963900       0.22112300
N        0.79665100       0.69363300      -0.92026600
Cl      -3.90968000      -1.53167400       0.33971900
C       -5.57972300       1.12117200      -0.10438500
C       -6.24126900       1.69826900      -1.20140300
C       -6.33156400       0.55786400       0.93969600
C       -8.37958500       1.13277700      -0.21974100
C       -7.72513500       0.57092300       0.88184900
C       -7.63526400       1.69531100      -1.26126600
H       -5.66101700       2.13045600      -2.01168600
H       -8.13770800       2.13000700      -2.12056900
H       -9.46504100       1.13345800      -0.26483000
H       -8.29968000       0.14399100       1.69881800
H       -5.83010000       0.13104900       1.80224100
C        4.86416700       3.21461000      -0.65102500
C        5.26656300       0.83313600      -0.85770700
C        7.11506300       2.39392500      -0.99050000
C        6.63099800       1.08176600      -1.00625600
C        6.22756300       3.46013200      -0.81503300
H        4.17559200       4.04474500      -0.51958700
H        6.59468400       4.48241700      -0.80648200
H        8.17759000       2.58373000      -1.11364900
H        7.31588200       0.24818600      -1.13232500
H        4.90832600      -0.18973000      -0.86742000
C       -1.43900900       3.88187500      -0.50642100
H       -1.32755700       4.44601400       0.42634000
H       -0.45279200       3.79092800      -0.96726100
H       -2.09104700       4.45711100      -1.16890800
C        0.34320500       2.99414600       2.05452400
H        0.89295900       2.71845600       2.96063600
H        0.45382100       4.07445000       1.91131800
H       -0.71239300       2.75997900       2.20510400
