71
Properties=species:S:1:pos:R:3 pbc="F F F"
Si      -0.00764200       1.25608000       0.80863400
O        0.71957700       1.91271800      -0.51084600
C        1.57781100       3.06110000      -0.65339900
C        0.83244200       4.36014400      -0.43468600
H        2.40650400       2.98478200       0.05690400
C       -0.47884400       4.52219500      -0.89890000
C        1.47757000       5.43077600       0.19395800
C       -1.14038700       5.74060100      -0.72622700
H       -0.98385900       3.69035500      -1.38175700
C        0.82042600       6.65266800       0.36058500
H        2.49167200       5.30075200       0.56502300
C       -0.49172600       6.80934600      -0.09822900
H       -2.16135700       5.85578100      -1.08097400
H        1.32716900       7.47638100       0.85656100
H       -1.00753400       7.75624200       0.03790000
C        2.13174000       3.00999000      -2.09815500
C        2.87409100       1.79128700      -2.41431600
H        2.77581000       3.88769300      -2.23441400
H        1.28711500       3.11783800      -2.79073800
C        3.47415100       0.77920500      -2.69627600
H        4.00767800      -0.10760100      -2.95797100
Cl      -1.93700300       1.67894300       1.55520400
Cl       0.98363900       2.40202800       2.39797400
O       -0.78651100       0.14551800      -0.62032600
O        0.62451400      -0.24658800       1.53703900
C       -1.07128700      -1.96965900       0.29749300
C        0.38958600      -2.11664000       0.15092400
C        2.57017700      -1.23348000       0.68027400
C       -2.96012100      -0.72477400      -0.50573400
C       -3.83932200      -1.71816800      -0.02979000
C       -1.89941000      -2.95175500       0.83208400
C       -3.28093700      -2.78380300       0.67815900
C        0.96232800      -3.14168800      -0.60473800
C        2.35723000      -3.17779600      -0.69624000
C        3.19248700      -2.25086700      -0.06731800
H       -3.94863700      -3.53795000       1.08252700
H        2.81796700      -3.95125700      -1.30214700
C        4.66219000      -2.39083200      -0.18978600
Cl       3.42914300      -0.06796900       1.58380600
N       -1.62164000      -0.84077000      -0.26609600
N        1.20576800      -1.19270000       0.74569500
Cl      -3.47819400       0.65679200      -1.37440900
C       -5.30919000      -1.65401900      -0.21043400
C       -6.13664800      -1.79112700       0.91697200
C       -5.88980800      -1.51814600      -1.48186000
C       -8.09812600      -1.63953200      -0.49271600
C       -7.27806000      -1.51727300      -1.61955800
C       -7.52478200      -1.77541800       0.77542700
H       -5.69016000      -1.88970900       1.90252600
H       -8.15613500      -1.86700300       1.65460000
H       -9.17888900      -1.63024200      -0.60314700
H       -7.71883600      -1.42313600      -2.60791300
H       -5.25836100      -1.43280200      -2.36006700
C        5.23805100      -3.65573900       0.02388700
C        5.48310300      -1.31403400      -0.56480900
C        7.42545600      -2.76058600      -0.49599500
C        6.85575000      -1.50333400      -0.72333700
C        6.61387100      -3.83578400      -0.12065600
H        4.60881500      -4.48983300       0.32181600
H        7.05023300      -4.81364700       0.06147200
H        8.49634800      -2.90178300      -0.61211100
H        7.47960800      -0.66757400      -1.02692300
H        5.04815100      -0.33920400      -0.75475700
C       -1.36630300      -4.15913300       1.55353500
H       -1.60742200      -5.07125600       0.99683200
H       -0.28631300      -4.11120200       1.70394200
H       -1.85202900      -4.23341500       2.53250100
C        0.13540000      -4.16280100      -1.33747400
H        0.66981200      -4.49473200      -2.23141300
H       -0.03398600      -5.04002900      -0.70257000
H       -0.83830700      -3.76351400      -1.63047300
