71
Properties=species:S:1:pos:R:3 pbc="F F F"
Si       0.06958800       1.50328700      -0.29015700
O       -1.51368500       1.22646100       0.01122100
C       -2.63284800       1.54062400       0.84294600
C       -3.47150100       2.67916100       0.29308800
H       -3.24364100       0.63048700       0.80987800
C       -2.95097200       3.68252000      -0.52959300
C       -4.82737300       2.72269300       0.65032400
C       -3.77357600       4.71931900      -0.98245100
H       -1.90753300       3.66111500      -0.82079100
C       -5.64860600       3.75933100       0.20316700
H       -5.24327100       1.93486700       1.27565500
C       -5.12148900       4.76385900      -0.61611900
H       -3.35708400       5.49228700      -1.62309400
H       -6.69775600       3.77840800       0.48631100
H       -5.75821400       5.57018700      -0.97032800
C       -2.27870800       1.77063300       2.33575100
C       -1.55169100       0.65283100       2.92975100
H       -3.23295100       1.91082600       2.85860200
H       -1.70858100       2.69737400       2.44426200
C       -0.95016600      -0.28226400       3.40573400
H       -0.40780100      -1.09019800       3.84408300
Cl       0.75200100       2.37123400      -2.08593600
Cl       0.36084800       3.31775800       0.90954400
O        1.23128100       0.68878300       0.80073200
O        0.05612600      -0.12198400      -1.34839800
C        1.75961300      -1.50099600       0.12013200
C        0.32295100      -1.82791200       0.20406200
C       -1.78889300      -1.50286700      -0.89362800
C        3.45401200       0.20705100       0.28975400
C        4.45840200      -0.71853100      -0.04809800
C        2.71680700      -2.44020300      -0.26824700
C        4.05044100      -2.02189800      -0.33457700
C       -0.21335300      -2.82124700       1.01945900
C       -1.57380600      -3.11108300       0.86880600
C       -2.38472700      -2.49060200      -0.08556300
H        4.80773500      -2.74304700      -0.62535100
H       -2.02642100      -3.84910600       1.52290000
C       -3.80955800      -2.88003700      -0.19905300
Cl      -2.58464100      -0.74548000      -2.20711900
N        2.15607900      -0.21102100       0.36978900
N       -0.48736900      -1.16028900      -0.67910700
Cl       3.75519800       1.86636700       0.55838400
C        5.89217500      -0.35880400      -0.14662600
C        6.60171500      -0.70527000      -1.30884300
C        6.56630600       0.26427600       0.91643400
C        8.63049900       0.20147200      -0.35010100
C        7.93065000       0.53578700       0.81431400
C        7.96335500      -0.41778100      -1.41154300
H        6.08099500      -1.18020900      -2.13563900
H        8.50044900      -0.67596800      -2.31967400
H        9.69138300       0.42183400      -0.42879800
H        8.44721200       1.00680700       1.64565700
H        6.03097400       0.51761800       1.82567600
C       -4.14497700      -4.24389000      -0.24894100
C       -4.83503300      -1.91950100      -0.19083200
C       -6.49774600      -3.67658400      -0.29569400
C       -6.17053100      -2.31780200      -0.23289400
C       -5.48243900      -4.63798300      -0.30510200
H       -3.35659400      -4.99119300      -0.26110800
H       -5.72991000      -5.69433500      -0.35756400
H       -7.53892300      -3.98412600      -0.33584800
H       -6.95484400      -1.56657800      -0.21439300
H       -4.59221900      -0.86392500      -0.13347200
C        0.60203500      -3.54149400       2.05706500
H        0.80354500      -4.56911200       1.73412800
H        1.55428200      -3.04330100       2.25135200
H        0.03490900      -3.59863300       2.99156400
C        2.36852600      -3.85875700      -0.62976100
H        3.01370400      -4.19366700      -1.44686600
H        2.54502900      -4.52088800       0.22568900
H        1.32567500      -3.96270100      -0.93538200
