71
Properties=species:S:1:pos:R:3 pbc="F F F"
Si       0.30352400       1.47903400      -0.99068800
O       -1.30635700       1.64937700      -0.67074000
C       -2.03480800       2.57390700       0.17035100
C       -1.81438900       2.24274200       1.63009300
H       -1.69882800       3.59314200      -0.03476200
C       -2.09983600       0.95919300       2.11528300
C       -1.31857300       3.21090800       2.50938000
C       -1.88360000       0.64341700       3.45675100
H       -2.48849500       0.20549200       1.43852700
C       -1.10767100       2.90108500       3.85693200
H       -1.08629800       4.20322600       2.13231800
C       -1.38678100       1.61638600       4.33233000
H       -2.10384100      -0.35642200       3.82168100
H       -0.71943700       3.65953200       4.53154800
H       -1.21815400       1.37348300       5.37813400
C       -3.52447500       2.44329500      -0.21927500
C       -3.78714300       2.79254200      -1.61317400
H       -4.09851900       3.09901200       0.44726000
H       -3.85486700       1.41638800      -0.01813500
C       -3.98164200       3.08368200      -2.77078900
H       -4.15832600       3.34174200      -3.79209000
Cl       1.17683200       1.64223100      -2.91000600
Cl       0.96949700       3.49177700      -0.36436600
O        1.23821400       0.82203700       0.36569000
O       -0.05021600      -0.30445700      -1.55327400
C        1.37533000      -1.51783500       0.39658600
C       -0.08889800      -1.61985000       0.36818700
C       -2.09148400      -1.27563700      -0.93431700
C        3.35093400      -0.13557800       0.20087300
C        4.16226100      -1.29097200       0.24081300
C        2.16784400      -2.65053400       0.51813000
C        3.55022800      -2.53568600       0.43878300
C       -0.79044800      -2.38357600       1.28904400
C       -2.15324100      -2.58104800       1.11143000
C       -2.81563900      -2.05988800      -0.00829800
H        1.68673700      -3.61616200       0.61407000
H        4.16774700      -3.42590100       0.49049000
H       -0.25864400      -2.81244600       2.12987300
H       -2.71230400      -3.17057300       1.82952100
C       -4.26449900      -2.32657600      -0.17120200
C       -2.66277900      -0.68277500      -2.18013400
N        1.99817300      -0.30926700       0.26854700
N       -0.76589700      -1.05998900      -0.68154800
C        3.85552700       1.26898900       0.16158200
C        5.63289500      -1.21765300       0.09055200
C        6.21421900      -0.52199600      -0.98363900
C        6.46136600      -1.90086300       0.99735000
C        8.41954300      -1.17905500      -0.23014000
C        7.84759600      -1.87389700       0.84077600
C        7.59981000      -0.50842700      -1.14406400
H        5.58016100      -0.01185400      -1.70249400
H        8.03811200       0.02256500      -1.98418100
H        9.49880500      -1.16162200      -0.35303300
H        8.48007700      -2.39307400       1.55521100
H        6.01810100      -2.43505900       1.83335300
C       -4.78036900      -2.88392100      -1.35285600
C       -5.13379700      -2.05736800       0.89988000
C       -7.00580700      -2.87798200      -0.39722500
C       -6.49858500      -2.32420900       0.78261100
C       -6.14324300      -3.16237000      -1.46127100
H       -4.11200500      -3.11393000      -2.17658400
H       -6.53054500      -3.60307900      -2.37547200
H       -8.06785200      -3.08838600      -0.48688000
H       -7.16435300      -2.09799400       1.61062200
H       -4.74149300      -1.62098100       1.81451700
H        3.35353200       1.86643500       0.92801400
H        4.93285300       1.28120600       0.31888500
H        3.62768800       1.73465400      -0.80395200
H       -2.30381900       0.33378200      -2.32997500
H       -2.35039000      -1.28386200      -3.04414300
H       -3.75072300      -0.68548300      -2.12874100
