71
Properties=species:S:1:pos:R:3 pbc="F F F"
Si       0.13770000       1.22421400      -0.28378300
O       -1.48354700       1.17435800       0.00232200
C       -2.45595100       1.92688300       0.75871200
C       -2.55233100       3.37305700       0.29518700
H       -3.40045700       1.43346900       0.49429400
C       -2.56480300       3.62911000      -1.08448400
C       -2.68175700       4.44863300       1.18163600
C       -2.68534100       4.93235100      -1.56766600
H       -2.46273700       2.80352100      -1.78297100
C       -2.80851300       5.75553200       0.69954900
H       -2.66898100       4.28462600       2.25396900
C       -2.80822800       6.00308600      -0.67513900
H       -2.68453100       5.11200400      -2.63965200
H       -2.89981800       6.57931200       1.40267600
H       -2.90148200       7.01942200      -1.04855500
C       -2.25588400       1.72882100       2.27539700
C       -2.23718900       0.31873800       2.65643500
H       -3.08493300       2.22777900       2.79193800
H       -1.32862900       2.21995500       2.58925100
C       -2.23051100      -0.84955800       2.96876500
H       -2.22690600      -1.87701100       3.25710100
Cl       1.00734700       1.94716900      -2.07165200
Cl       0.65166500       3.03122600       0.88029900
O        1.14859300       0.30810700       0.86230300
O       -0.05602700      -0.38064700      -1.27559900
C        1.57496200      -1.90829200       0.22320300
C        0.13558900      -2.18377300       0.17913700
C       -1.97413900      -1.67053100      -0.87068400
C        3.35698300      -0.28373100       0.42151400
C        4.30444000      -1.28718500       0.12163200
C        2.50575500      -2.91588900       0.00872300
C        3.85851100      -2.60533000      -0.04274200
C       -0.42618000      -3.27691500       0.82252700
C       -1.78023900      -3.53741300       0.66433700
C       -2.57461900      -2.74197900      -0.17204900
H        2.15193500      -3.92300900      -0.17527000
H        4.58133200      -3.38563900      -0.25457700
H        0.19764800      -3.88552700       1.46585100
H       -2.23862800      -4.35906200       1.20372700
C       -4.01715100      -3.04293600      -0.30454400
C       -2.65312400      -0.87138100      -1.93605900
N        2.03920700      -0.64272900       0.44665800
N       -0.65795500      -1.40754700      -0.62097900
C        3.68750600       1.12694300       0.78114100
C        5.74675500      -0.98258800      -0.01291800
C        6.18862500       0.06352100      -0.84126900
C        6.69378500      -1.78322800       0.64866300
C        8.49010600      -0.48579100      -0.32691800
C        8.05750500      -1.52970200       0.49750800
C        7.55322000       0.30607500      -0.99945200
H        5.46413800       0.67103900      -1.37502600
H        7.88403100       1.11071000      -1.64984600
H        9.55225500      -0.29104100      -0.44596000
H        8.78091600      -2.14504700       1.02478800
H        6.35910000      -2.58927000       1.29581700
C       -4.44051200      -4.37213100      -0.48108000
C       -4.98097300      -2.02524000      -0.19945100
C       -6.75266300      -3.65483500      -0.46019300
C       -6.33971600      -2.33151800      -0.27187900
C       -5.80003200      -4.67377200      -0.56573100
H       -3.70186000      -5.16413500      -0.57067100
H       -6.11494000      -5.70249000      -0.71624900
H       -7.81130100      -3.89077300      -0.52291000
H       -7.07534900      -1.53783000      -0.17754200
H       -4.66458900      -1.00011700      -0.03775500
H        3.13159800       1.42513100       1.67410600
H        4.75880500       1.22479200       0.95013400
H        3.38598800       1.81098700      -0.02040800
H       -2.99620700       0.08985500      -1.54522300
H       -1.95055700      -0.66034200      -2.74612700
H       -3.51109100      -1.42982000      -2.31176800
