71
Properties=species:S:1:pos:R:3 pbc="F F F"
Si      -0.31663900       1.25226100       0.92487200
O        0.42374000       2.02805000      -0.32063100
C        1.26039200       3.20327500      -0.38743300
C        2.68814400       2.78619600      -0.65740000
H        1.21205300       3.75187900       0.55564000
C        3.00381200       2.00780600      -1.78109500
C        3.71050000       3.17876700       0.21358500
C        4.32558200       1.63743200      -2.03320900
H        2.21186600       1.68830000      -2.45319500
C        5.03556500       2.80459100      -0.03464800
H        3.46365700       3.76873400       1.09245700
C        5.34510400       2.03584000      -1.15970900
H        4.56231200       1.03601700      -2.90691800
H        5.82145200       3.11062900       0.65056800
H        6.37361100       1.74458700      -1.35491100
C        0.70298300       4.10026800      -1.51612400
C       -0.65401300       4.56867600      -1.24379100
H        1.38173400       4.95529300      -1.62837200
H        0.72952400       3.53935400      -2.45867900
C       -1.77589100       4.94009300      -0.98625900
H       -2.76560200       5.27390400      -0.76347100
Cl       0.71996100       2.24798100       2.62238100
Cl      -2.22777100       1.71972700       1.71856700
O       -1.07678800       0.25909400      -0.51600100
O        0.28608600      -0.27886900       1.58457700
C       -1.52537800      -1.90451800       0.22979800
C       -0.08055300      -2.15726800       0.23294700
C        2.15690900      -1.37383600       0.72606600
C       -3.29745400      -0.45501500      -0.53259500
C       -4.24828500      -1.43976200      -0.18417700
C       -2.44540800      -2.90131300       0.52475700
C       -3.80076900      -2.65536000       0.35143200
C        0.44110900      -3.29507700      -0.36821000
C        1.81713300      -3.46283500      -0.44941100
C        2.69586100      -2.49611000       0.05726500
H       -2.08672900      -3.84814900       0.90994700
H       -4.52668800      -3.41197700       0.62829000
H       -0.24048200      -4.00923700      -0.81364900
H        2.22302800      -4.33518200      -0.94993800
C        4.15516000      -2.68645100      -0.10202900
C        2.95881500      -0.33139200       1.43009800
N       -1.98519500      -0.69922900      -0.23389300
N        0.79553900      -1.26464600       0.78182800
C       -3.60785400       0.78860700      -1.30316400
C       -5.69835500      -1.21555400      -0.37724600
C       -6.30978700      -0.02556100       0.05492100
C       -6.49066500      -2.22288000      -0.95557200
C       -8.46484700      -0.84904600      -0.68145200
C       -7.86434200      -2.03633100      -1.11313600
C       -7.68534600       0.15238700      -0.09254000
H       -5.71091200       0.74851200       0.52481300
H       -8.14871800       1.07109900       0.25570400
H       -9.53506400      -0.70554300      -0.80137200
H       -8.46409200      -2.81592100      -1.57428100
H       -6.02436500      -3.14237700      -1.29843600
C        4.73125600      -3.93342400       0.19787300
C        4.96936500      -1.65479300      -0.59862600
C        6.90470000      -3.10443200      -0.47557700
C        6.33481700      -1.86580200      -0.78806500
C        6.09999500      -4.13665000       0.01877200
H        4.11002800      -4.73362200       0.59092300
H        6.53805400      -5.09894500       0.26802600
H        7.96989400      -3.26520900      -0.61642500
H        6.95187000      -1.06266700      -1.18084800
H        4.53289600      -0.69458500      -0.85085600
H       -2.81990600       0.97199000      -2.03835100
H       -4.57059300       0.66805400      -1.80108200
H       -3.65481200       1.66527300      -0.65145500
H        2.94899300       0.60660100       0.86105900
H        2.52685400      -0.11572000       2.41022700
H        3.98960700      -0.66603400       1.53489100
