71
Properties=species:S:1:pos:R:3 pbc="F F F"
Si       0.23255200       1.36448200      -0.18319600
O       -1.36433800       1.19695000       0.19677300
C       -2.23563500       1.90963700       1.09495900
C       -2.89837500       3.08862100       0.41617000
H       -1.66772600       2.26281800       1.95939700
C       -3.31737400       3.02501200      -0.91841300
C       -3.14115900       4.25292000       1.15507100
C       -3.96608000       4.11343000      -1.50742900
H       -3.12460200       2.13050100      -1.50175500
C       -3.79542500       5.34052000       0.57047300
H       -2.80625500       4.30942900       2.18836300
C       -4.20905000       5.27324000      -0.76396800
H       -4.28004000       4.05650600      -2.54649600
H       -3.97202700       6.24163300       1.15195700
H       -4.71110800       6.12073400      -1.22314300
C       -3.29098500       0.88805700       1.58808700
C       -2.70815200      -0.17293900       2.40579300
H       -4.03913500       1.43744300       2.17283100
H       -3.80950400       0.46671000       0.71774700
C       -2.19784600      -1.02538800       3.09532100
H       -1.75721100      -1.78281000       3.70496900
Cl       0.94824800       2.19488600      -1.99096400
Cl       0.65336000       3.18558800       0.99995100
O        1.34491900       0.50802600       0.90657700
O        0.09993100      -0.22380700      -1.21077100
C        1.78985300      -1.71012600       0.27874600
C        0.35426200      -2.01501400       0.25560300
C       -1.75380200      -1.61703100      -0.84494500
C        3.54639600      -0.05133200       0.41357900
C        4.50596600      -1.04238000       0.11162300
C        2.73443600      -2.70436900       0.06289900
C        4.08030200      -2.37094500      -0.02013100
C       -0.17999900      -3.10119600       0.93233700
C       -1.51559700      -3.43122400       0.74457800
C       -2.31046700      -2.71829200      -0.16043000
H        2.39512900      -3.72059900      -0.09706700
H        4.81255300      -3.14226000      -0.23253800
H        0.45663800      -3.66912700       1.59973400
H       -1.94679000      -4.26863900       1.28194400
C       -3.72588800      -3.11475900      -0.34697800
C       -2.48542200      -0.81098400      -1.86869200
N        2.23643100      -0.43391600       0.47312600
N       -0.45669100      -1.28882600      -0.57410500
C        3.85219600       1.37252100       0.74330400
C        5.93995200      -0.71742200      -0.05849400
C        6.34841400       0.32016500      -0.91419200
C        6.91274800      -1.49419800       0.59422900
C        8.66842300      -0.19135300      -0.44566500
C        8.26908600      -1.22600800       0.40672500
C        7.70569300       0.57708400      -1.10880300
H        5.60354800       0.90934800      -1.44028400
H        8.01064700       1.37427000      -1.78063900
H        9.72484000       0.01426800      -0.59373000
H        9.01262500      -1.82310200       0.92695400
H        6.60398100      -2.29341400       1.26243600
C       -4.25599900      -3.38427100      -1.61925900
C       -4.54603500      -3.25520200       0.78572000
C       -6.40051600      -3.91309600      -0.62545100
C       -5.87864300      -3.64485600       0.64420600
C       -5.58516100      -3.78712100      -1.75523300
H       -3.62415900      -3.29751400      -2.49740300
H       -5.98280200      -4.00386000      -2.74266300
H       -7.43724600      -4.21928700      -0.73436700
H       -6.50920000      -3.73568100       1.52421500
H       -4.14154400      -3.02980500       1.76838600
H        3.34024500       1.65841800       1.66666800
H        4.92713700       1.50775600       0.85041500
H        3.47972700       2.03937800      -0.04287900
H       -3.55729100      -0.84888900      -1.66947900
H       -2.13752900       0.21792200      -1.88125300
H       -2.30895400      -1.24331800      -2.86215200
