71
Properties=species:S:1:pos:R:3 pbc="F F F"
Si       0.01437800       0.99288000       0.57100800
O       -0.99112300       2.27120600       0.21978800
C       -0.81825100       3.68966700       0.16813600
C       -1.93767800       4.28098400      -0.66498800
H        0.14172900       3.93209200      -0.30086100
C       -3.26791800       3.88652500      -0.46712800
C       -1.65016200       5.27510700      -1.60699300
C       -4.29475900       4.47687600      -1.20695100
H       -3.49067700       3.10764600       0.25521300
C       -2.67746900       5.87144500      -2.34568800
H       -0.61775200       5.58077800      -1.76305100
C       -4.00261600       5.47253000      -2.14691200
H       -5.32334000       4.16116200      -1.05099600
H       -2.44222900       6.64028000      -3.07718900
H       -4.80270200       5.93121000      -2.72216300
C       -0.84005500       4.30444300       1.59632900
C        0.35527700       4.00612800       2.37967900
H       -0.94447300       5.39179800       1.49117300
H       -1.73857800       3.93914400       2.10948000
C        1.36425700       3.76131100       2.99998300
H        2.24909300       3.52473800       3.54902800
Cl      -0.65180400       0.64496900       2.54172900
Cl       1.82719600       1.81090500      -0.17378000
O       -0.74249300       0.04517400      -0.73779900
O        1.03720900      -0.70953000       1.01979800
C       -0.15707100      -2.21025800      -0.86882500
C        1.27114200      -1.87260600      -0.96428200
C        3.20296000      -1.10523300       0.22406500
C       -2.44014400      -1.54993700      -0.52009300
C       -2.83730600      -2.89557400      -0.41705000
C       -0.55646200      -3.54258300      -0.95185100
C       -1.87254500      -3.88102100      -0.69995100
C        2.07624600      -2.33040800      -2.00289300
C        3.43288000      -2.05525000      -1.97887600
C        4.02864800      -1.42563100      -0.86856700
H        0.19657000      -4.30122600      -1.12909700
H       -2.16830800      -4.92376300      -0.67083500
H        1.61667500      -2.84578900      -2.83803800
H        4.05593000      -2.31667600      -2.82670400
C        5.45939100      -1.06762700      -0.93674000
C        3.71190600      -0.80837700       1.65663300
N       -1.10650400      -1.25868000      -0.66244300
N        1.84373300      -1.22175800       0.08720800
C       -3.42379700      -0.35646500      -0.61935400
C       -4.17539500      -3.33441900       0.02785400
F       -4.68852400      -0.78076100      -0.79617200
F       -3.13387800       0.41530200      -1.68696800
F       -3.38896700       0.40094500       0.49623700
F        5.00975100      -1.15617500       1.77816900
F        3.03371000      -1.56528600       2.55162500
F        3.59420100       0.48293900       2.01801300
C       -4.71797500      -2.82082300       1.21843800
C       -4.86394900      -4.33491200      -0.67809300
C       -6.63149400      -4.28174700       0.97456000
C       -6.09360100      -4.79678900      -0.20991400
C       -5.93914500      -3.29844400       1.68974000
H       -4.17499700      -2.06522600       1.77843700
H       -6.34821700      -2.90616900       2.61611300
H       -7.58579400      -4.64862600       1.34160600
H       -6.63065800      -5.55768000      -0.76854300
H       -4.44753600      -4.73074500      -1.60019800
C        6.40591800      -2.00377900      -1.38536000
C        5.86621500       0.24287000      -0.63112400
C        8.14674400      -0.33170100      -1.20110700
C        7.20418100       0.60774200      -0.76904400
C        7.74592600      -1.63725600      -1.50620300
H        6.09436600      -3.01925000      -1.61338900
H        8.47668100      -2.36942700      -1.83724700
H        9.19010800      -0.04664500      -1.30248300
H        7.51017000       1.62501800      -0.54290700
H        5.13159200       0.97405300      -0.30695700
