71
Properties=species:S:1:pos:R:3 pbc="F F F"
Si      -0.07192300       1.24880000       1.01551300
O        1.51333700       1.31641000       0.59812600
C        2.38119300       2.17326500      -0.20046400
C        1.84341500       2.33572800      -1.60912900
H        3.30149900       1.58352100      -0.26486600
C        1.91767400       1.22526800      -2.46317100
C        1.26788000       3.51810100      -2.08768100
C        1.40201300       1.27844600      -3.75801700
H        2.39038400       0.31439900      -2.10841200
C        0.75830700       3.58003200      -3.38809700
H        1.20397100       4.39177200      -1.44914200
C        0.81597800       2.46071900      -4.22359300
H        1.46751500       0.40643600      -4.40382700
H        0.31249700       4.50404800      -3.74624400
H        0.41590800       2.51202700      -5.23273100
C        2.74219800       3.48243200       0.52589200
C        3.35582000       3.24644300       1.83026400
H        3.44437800       4.02275000      -0.12258700
H        1.85642800       4.11268600       0.64166200
C        3.86256000       3.03809400       2.90813600
H        4.30410000       2.85525200       3.86321400
Cl      -0.72817000       1.18477300       3.01233600
Cl      -0.68850600       3.30505600       0.67351400
O       -1.15287700       0.78282300      -0.34380400
O        0.18219300      -0.67283700       1.31088800
C       -1.25450200      -1.51289900      -0.80199800
C        0.20862500      -1.63308500      -0.79358200
C        2.19791000      -1.58286200       0.53938900
C       -3.25026500      -0.25064300      -0.36437200
C       -4.03903700      -1.40646700      -0.50611200
C       -2.03059200      -2.62621100      -1.11890200
C       -3.40134200      -2.57885800      -0.95374800
C        0.91102700      -2.22345300      -1.84109600
C        2.28122400      -2.37426800      -1.73602600
C        2.96527900      -2.03404800      -0.55101900
H       -1.53088300      -3.54267600      -1.40920500
H       -3.99875700      -3.46924300      -1.11647000
H        0.37730300      -2.49247100      -2.74464600
H        2.85431400      -2.73492800      -2.58261200
C        4.44014600      -2.08452400      -0.54739100
C        2.68553700      -1.55887100       2.01037300
N       -1.88433900      -0.35539900      -0.45980500
N        0.87342200      -1.29488400       0.34498900
C       -3.82015400       1.18236700      -0.22589700
C       -5.47463700      -1.48854100      -0.16229300
F       -3.30819400       1.99285800      -1.17514200
F       -3.54650400       1.69353700       0.99263100
F       -5.15390100       1.20292300      -0.39465400
F        2.89718900      -0.32154000       2.48575600
F        3.83318200      -2.25811400       2.13882300
F        1.77867700      -2.17774000       2.80341800
C       -5.91033900      -1.10316900       1.11675000
C       -6.38637300      -2.04764400      -1.07212800
C       -8.15650200      -1.81291200       0.56217000
C       -7.72561600      -2.19672200      -0.71238200
C       -7.24612300      -1.27194700       1.47666800
H       -5.20090900      -0.68959800       1.82724800
H       -7.57533900      -0.98342700       2.47057700
H       -9.19838300      -1.93779900       0.84309700
H       -8.43127500      -2.61286900      -1.42536500
H       -6.05000500      -2.34127200      -2.06251200
C        5.11435400      -3.18336300      -1.10711900
C        5.17898600      -0.98763100      -0.06965500
C        7.23688900      -2.09607900      -0.69142700
C        6.56976800      -0.99311400      -0.14722100
C        6.50717500      -3.19093700      -1.16775100
H        4.54854900      -4.03584100      -1.47195000
H        7.02283800      -4.05029800      -1.58620000
H        8.32172800      -2.10113200      -0.74702800
H        7.13128000      -0.13640100       0.21348200
H        4.66359900      -0.12762200       0.34620200
