71
Properties=species:S:1:pos:R:3 pbc="F F F"
Si       0.17752000       1.22139800       0.40828100
O       -0.68290600       2.53260200      -0.14681600
C       -1.74329600       3.33292600       0.38760600
C       -2.88976700       3.42182300      -0.59915500
H       -2.10650500       2.90797800       1.32814800
C       -2.64773000       3.59740800      -1.96732800
C       -4.20928500       3.38129900      -0.13639700
C       -3.71327900       3.71605200      -2.86220800
H       -1.62351700       3.61969700      -2.32845300
C       -5.27836100       3.50384500      -1.02882000
H       -4.39939400       3.23886200       0.92500100
C       -5.03205400       3.66937800      -2.39524600
H       -3.51637600       3.84433600      -3.92364100
H       -6.29971900       3.46271900      -0.65903200
H       -5.86125900       3.75918700      -3.09226100
C       -1.18655900       4.75645400       0.66205100
C       -0.11360600       4.78871400       1.65205300
H       -2.02235300       5.38583000       0.99360400
H       -0.83111600       5.16657400      -0.29208100
C        0.77646300       4.79800100       2.47092500
H        1.56152900       4.79965000       3.19484700
Cl      -0.36607900       1.17326300       2.43639200
Cl       1.98821600       1.93919100      -0.41844300
O       -0.64212400       0.13242900      -0.75989800
O        1.17809500      -0.46258200       1.00544400
C        0.03496100      -2.11073500      -0.79511200
C        1.45299000      -1.74360100      -0.90228800
C        3.35786800      -0.89614700       0.27344800
C       -2.25490600      -1.51879100      -0.38727000
C       -2.60489300      -2.87223500      -0.24186200
C       -0.32303800      -3.45759500      -0.82904600
C       -1.62013100      -3.83341900      -0.53741700
C        2.27889200      -2.24306500      -1.90514700
C        3.63180300      -1.95453100      -1.87430900
C        4.20470500      -1.26720000      -0.78609000
H        0.45104700      -4.19591100      -1.00072900
H       -1.88205900      -4.88404300      -0.47852200
H        1.83657500      -2.80399100      -2.71989400
H        4.27039100      -2.25089100      -2.69871700
C        5.63454700      -0.90429400      -0.85118500
C        3.83815400      -0.50556600       1.69234600
N       -0.93983000      -1.18266500      -0.59925200
N        2.00155200      -1.03163100       0.12229900
C       -3.27042000      -0.35512100      -0.45861000
C       -3.91348200      -3.34827400       0.25442800
F       -4.54045700      -0.79231800      -0.46102900
F       -3.10730900       0.34234600      -1.60001900
F       -3.11999800       0.47236200       0.60046300
F        5.13682500      -0.83116900       1.85866200
F        3.15169100      -1.21110400       2.62287000
F        3.70088600       0.80488200       1.96673500
C       -4.41314500      -2.87119200       1.47811200
C       -4.60973500      -4.34941000      -0.44182700
C       -6.30540800      -4.36759100       1.28519100
C       -5.80853500      -4.84722600       0.06859300
C       -5.60282600      -3.38467400       1.99092700
H       -3.86289500      -2.11388700       2.02905600
H       -5.98007400      -3.01968500       2.94167100
H       -7.23560900      -4.76157700       1.68458900
H       -6.35327900      -5.60825200      -0.48238400
H       -4.22421200      -4.71797400      -1.38825900
C        6.59139200      -1.85598900      -1.24203400
C        6.03138800       0.42207400      -0.60725800
C        8.32166300      -0.16750800      -1.12062400
C        7.36916000       0.78681200      -0.74696300
C        7.93095100      -1.48862900      -1.36542100
H        6.28837600      -2.88313600      -1.42483100
H        8.66895200      -2.23226300      -1.65183400
H        9.36469000       0.11809900      -1.22392000
H        7.66716600       1.81583300      -0.56833700
H        5.28980200       1.16508100      -0.32979200
