71
Properties=species:S:1:pos:R:3 pbc="F F F"
Si      -0.24181400       1.73167300       0.32630600
O        1.34924200       1.62679200      -0.08946100
C        2.08685500       2.11047400      -1.24368100
C        2.32087700       0.93050100      -2.17092000
H        1.47989300       2.85383700      -1.76623800
C        1.23974300       0.48323900      -2.94790800
C        3.54273600       0.25413900      -2.26232000
C        1.37316300      -0.62253000      -3.78888100
H        0.29166100       1.01114200      -2.89136000
C        3.68062200      -0.85362900      -3.10499700
H        4.39768600       0.58136100      -1.68191300
C        2.59677900      -1.29667900      -3.86768600
H        0.52791900      -0.95293200      -4.38667200
H        4.63587200      -1.36831800      -3.16103000
H        2.70575000      -2.15706100      -4.52241100
C        3.36514400       2.79844400      -0.73624600
C        3.08063400       3.97346000       0.08336900
H        3.96351300       3.08508500      -1.61035500
H        3.96269800       2.08558600      -0.15708700
C        2.82635500       4.93971600       0.76373000
H        2.59997400       5.79433600       1.36300900
Cl      -0.91414600       2.53622900       2.14663600
Cl      -0.82964500       3.45385500      -0.88117200
O       -1.32699500       0.77241700      -0.74083700
O       -0.00973700       0.12876300       1.37628800
C       -1.32348000      -1.52917400      -0.29437100
C        0.14163700      -1.56991900      -0.19239300
C        2.03984700      -0.98892500       1.14789500
C       -3.37786500      -0.28745700      -0.39406200
C       -4.11991300      -1.44781900      -0.10922700
C       -2.04872300      -2.71465800      -0.18894100
C       -3.42576500      -2.67225100      -0.08185500
C        0.91596800      -2.46749400      -0.92185300
C        2.27500200      -2.53480200      -0.68331500
C        2.87617600      -1.79763500       0.35861000
H       -1.50778600      -3.64929800      -0.10271700
H       -3.98548700      -3.58593900       0.08515500
H        0.44807300      -3.05678500      -1.70067500
H        2.90180700      -3.15880500      -1.30726900
C        4.34370300      -1.87126300       0.50447700
C        2.43060900      -0.37514300       2.51339400
N       -2.00723400      -0.35991700      -0.42393400
N        0.73469100      -0.81789400       0.77250400
C       -3.99688400       1.07074800      -0.80714200
C       -5.56000400      -1.46096000       0.22495000
F       -3.51027300       1.46774100      -2.00260100
F       -3.74092100       2.02181000       0.11534600
F       -5.33017900       0.98502200      -0.95382400
F        2.67889800       0.94700900       2.43818400
F        3.53037700      -0.98131000       3.00807300
F        1.45353100      -0.57776500       3.42536600
C       -6.04198700      -0.64657500       1.26383700
C       -6.42706900      -2.35902200      -0.41803600
C       -8.24602300      -1.60745200       0.99150500
C       -7.76881400      -2.42085900      -0.04197500
C       -7.37948600      -0.72578400       1.64684600
H       -5.36660600       0.03255400       1.77555000
H       -7.74424800      -0.10146100       2.45714000
H       -9.28970400      -1.66274900       1.28763900
H       -8.44034400      -3.10348000      -0.55441000
H       -6.05558500      -2.98671300      -1.22291200
C        5.00014100      -3.10783100       0.37676900
C        5.10692900      -0.70321000       0.67166400
C        7.14364200      -2.00371100       0.59048400
C        6.49714600      -0.76830000       0.70810200
C        6.39203200      -3.17250400       0.43005600
H        4.41934300      -4.01803100       0.25761200
H        6.88922700      -4.13442800       0.34650000
H        8.22820600      -2.05484100       0.62295300
H        7.07488900       0.14377000       0.82505300
H        4.60956000       0.25587700       0.76118600
