77
Properties=species:S:1:pos:R:3 pbc="F F F"
Si      -0.18408400       1.63489700       1.18544000
O        0.65277400       2.46765200       0.04191800
C        0.53130300       2.59269100      -1.40429300
C        1.35142800       1.53908800      -2.11700200
H       -0.51717000       2.49671300      -1.69103600
C        2.73768500       1.44986700      -1.92599400
C        0.72950600       0.66283300      -3.01564200
C        3.48823900       0.50945100      -2.63462400
H        3.22722000       2.12106300      -1.22534000
C        1.47695300      -0.28596800      -3.71764800
H       -0.34350100       0.72743300      -3.16173400
C        2.85982700      -0.36311700      -3.52956000
H        4.56159100       0.45233600      -2.48686800
H        0.98103200      -0.96120400      -4.40964700
H        3.44675600      -1.09577900      -4.07688300
C        1.00799800       4.01915700      -1.75707900
C        0.15138400       5.05503600      -1.18432400
H        1.02022300       4.10425200      -2.85111600
H        2.04128800       4.14308600      -1.41035400
C       -0.58038500       5.88864400      -0.70244700
H       -1.21827900       6.63125000      -0.27528100
Cl       0.73489400       2.71692000       2.82076600
Cl      -2.14568000       1.87927500       1.92109900
O       -0.95111200       0.62174400      -0.36424400
O        0.42584400       0.06865900       1.81621300
C       -1.06262700      -1.57441700       0.27428000
C        0.41252400      -1.55721000       0.15909000
C        2.49622200      -0.80343200       1.09484900
C       -3.05736300      -0.40725800      -0.36534400
C       -3.84279300      -1.46593200       0.12888400
C       -1.79142100      -2.69377800       0.68043600
C       -3.18221300      -2.58568400       0.65330200
C        1.08072500      -2.33888500      -0.79142200
C        2.46856900      -2.26016300      -0.81831500
C        3.20858800      -1.51970500       0.11840900
H       -3.78209700      -3.39744300       1.05160200
H        3.00795100      -2.78957300      -1.59525800
C        4.68228800      -1.51087400      -0.01696800
C        3.16330800      -0.14845700       2.32732100
N       -1.70804600      -0.44988100      -0.14714100
N        1.13007800      -0.76681800       0.99935400
C       -3.57508100       0.69777400      -1.31375000
C       -5.31953600      -1.42191800       0.18540700
F       -4.74505200       0.32222700      -1.87208400
F       -2.70867200       0.87474200      -2.34359900
F       -3.76420400       1.88981200      -0.72027100
F        3.44800700       1.15100600       2.09681300
F        4.31761800      -0.78673200       2.61821800
F        2.40103800      -0.23886500       3.43157100
C       -5.97124800      -0.30053000       0.72571100
C       -6.07454000      -2.53006300      -0.23298900
C       -8.11038900      -1.38752400       0.40709900
C       -7.46526100      -2.50687300      -0.12999300
C       -7.36068600      -0.28807200       0.83898200
H       -5.38925700       0.54823200       1.07184400
H       -7.85712400       0.57774800       1.26743900
H       -9.19335200      -1.37340300       0.49160700
H       -8.04468800      -3.36049100      -0.46971900
H       -5.57214900      -3.39476700      -0.65774100
C        5.36134700      -2.72248500      -0.23023600
C        5.40414600      -0.30594100      -0.01809800
C        7.45526300      -1.52493600      -0.42474600
C        6.78181600      -0.31501000      -0.22505100
C        6.74265800      -2.72831200      -0.42402500
H        4.81053800      -3.65879000      -0.22037700
H        7.26087400      -3.67116900      -0.57241100
H        8.53012000      -1.52943400      -0.58179100
H        7.32824700       0.62348100      -0.23560600
H        4.88631300       0.63549400       0.12175200
C       -1.13146300      -3.94590400       1.18603100
H       -1.31963700      -4.77252200       0.49121600
H       -0.05322000      -3.82910200       1.31127900
H       -1.56864200      -4.22322200       2.15071400
C        0.32967200      -3.17341600      -1.78907200
H        0.97270300      -3.39324800      -2.64405600
H        0.02245500      -4.12365200      -1.33760600
H       -0.56920900      -2.66049300      -2.14195900
