77
Properties=species:S:1:pos:R:3 pbc="F F F"
Si      -0.11126500       1.40869400       0.91869800
O        1.49750800       1.44757900       0.60026200
C        2.43656800       2.28725100      -0.13333800
C        2.04534800       2.41156300      -1.59427900
H        3.35888200       1.69928400      -0.08698400
C        2.22199400       1.28765300      -2.41552600
C        1.52085000       3.58084800      -2.15750500
C        1.85741400       1.31613500      -3.76180500
H        2.65833400       0.38618300      -1.99646000
C        1.15966900       3.61693200      -3.50745600
H        1.38312500       4.46604700      -1.54748300
C        1.31902400       2.48468000      -4.31138400
H        2.00477100       0.43637400      -4.38248600
H        0.75180700       4.53147900      -3.92952000
H        1.03570000       2.51547000      -5.36013900
C        2.72301200       3.61895800       0.58683600
C        3.20434000       3.42876400       1.95262900
H        3.48538900       4.14170300      -0.00562200
H        1.83039900       4.25034500       0.59560900
C        3.59999400       3.26416800       3.08319500
H        3.94412800       3.11620200       4.08328600
Cl      -0.94801000       1.49231000       2.84746000
Cl      -0.69563200       3.43171000       0.37537600
O       -1.08998300       0.81064200      -0.46721700
O        0.15027400      -0.48446600       1.42199400
C       -1.25773900      -1.51794300      -0.54913300
C        0.21698900      -1.58517100      -0.60419400
C        2.18336800      -1.44373700       0.76213000
C       -3.22445700      -0.14118500      -0.37058500
C       -4.02965900      -1.28426100      -0.23064000
C       -2.03744900      -2.68483500      -0.53715100
C       -3.40797200      -2.53524900      -0.34709300
C        0.93880800      -2.14143900      -1.66353200
C        2.31882400      -2.24975200      -1.50027800
C        2.97153500      -1.91912900      -0.30267500
H       -4.02227500      -3.42338300      -0.24273100
H        2.92142800      -2.58476600      -2.33778200
C        4.44832800      -1.98691600      -0.26237400
C        2.65495900      -1.32818200       2.22976300
N       -1.86803100      -0.30578000      -0.43674600
N        0.86617700      -1.18327500       0.52549900
C       -3.77318300       1.29235900      -0.55596300
C       -5.47109900      -1.25350400       0.10316500
F       -3.15506000       1.92729700      -1.57221600
F       -3.62640700       2.01677200       0.57322300
F       -5.08264800       1.27007300      -0.87178300
F        2.93564600      -0.06620100       2.59914200
F        3.76304100      -2.07796000       2.42289300
F        1.71818400      -1.82438600       3.07083700
C       -5.92113300      -0.52285800       1.21547600
C       -6.37940200      -2.02939400      -0.63504300
C       -8.17331700      -1.32014200       0.82707000
C       -7.72786900      -2.05190300      -0.27880400
C       -7.26694400      -0.56178400       1.57612100
H       -5.21695300       0.06038200       1.80085900
H       -7.60712600      -0.00212700       2.44248100
H       -9.22284300      -1.34320500       1.10641700
H       -8.42921600      -2.63967600      -0.86382000
H       -6.03242300      -2.59410900      -1.49585600
C        5.11810600      -3.10964000      -0.77672100
C        5.19333500      -0.89180600       0.20761600
C        7.24834700      -2.04988500      -0.32934600
C        6.58580800      -0.92306500       0.16935900
C        6.51222900      -3.14267100      -0.79966900
H        4.54707500      -3.96032600      -1.13789100
H        7.02331100      -4.02076800      -1.18364200
H        8.33409700      -2.07533700      -0.35350200
H        7.15224600      -0.06796500       0.52637800
H        4.68204700      -0.01494500       0.59188000
C       -1.43563900      -4.05879000      -0.63677200
H       -1.40273900      -4.37500700      -1.68553300
H       -0.41840200      -4.09411700      -0.23999600
H       -2.05759300      -4.77275500      -0.09148200
C        0.28744700      -2.53914700      -2.95773300
H        0.88549000      -2.16603900      -3.79436500
H        0.25175100      -3.63133700      -3.04019100
H       -0.72761900      -2.14619300      -3.04802100
