77
Properties=species:S:1:pos:R:3 pbc="F F F"
Si      -0.37952500       1.37398700       0.59657500
O       -1.29423600       2.63606600       0.17859100
C       -2.43088500       3.25710000       0.85485000
C       -3.49394400       3.58597800      -0.16406000
H       -2.82946300       2.55757000       1.59569200
C       -3.16282700       4.20863700      -1.37488000
C       -4.83457000       3.31147400       0.12732800
C       -4.16493900       4.54512800      -2.28698600
H       -2.12194700       4.41530900      -1.60721200
C       -5.83939200       3.65607800      -0.78116300
H       -5.09095500       2.82188300       1.06389800
C       -5.50552800       4.27198100      -1.99099800
H       -3.90111800       5.02139200      -3.22755800
H       -6.87785300       3.43699500      -0.54772600
H       -6.28440200       4.53521400      -2.70168200
C       -1.92262600       4.52547000       1.57595000
C       -0.92113100       4.22225100       2.59444700
H       -2.79136200       5.02022200       2.02795800
H       -1.51265800       5.21050700       0.82346600
C       -0.09031300       3.91053100       3.41583400
H        0.64470900       3.64680900       4.14459600
Cl      -0.92966300       0.37512500       2.29420300
Cl       1.59503300       1.91679500       0.60042000
O       -0.54881600       0.27581500      -0.74186300
O        1.91663000      -1.67569000       1.53467800
C        0.30200000      -1.88440800      -0.50897400
C        1.64493800      -1.30399200      -0.70428400
C        3.76788100      -0.92745600       0.33383500
C       -2.08522500      -1.50070800      -0.54192400
C       -2.32016100      -2.84570600      -0.22759900
C        0.09510600      -3.26342400      -0.33258000
C       -1.20914400      -3.70548300      -0.15944600
C        2.11373900      -0.85005100      -1.93615200
C        3.41575900      -0.36113500      -1.98676000
C        4.24825000      -0.36358400      -0.85810700
H       -1.38777300      -4.75602800       0.04632800
H        3.79398400       0.05454600      -2.91426200
C        5.56905600       0.30252500      -0.99144600
C        4.59422600      -1.20447800       1.58965000
N       -0.78322000      -1.06782300      -0.57591100
N        2.43965200      -1.31745200       0.42410300
C       -3.18499400      -0.49904500      -0.95101900
C       -3.65656400      -3.39721200       0.08544400
F       -4.30683100      -1.13579400      -1.32473500
F       -2.80728000       0.25847400      -2.00125600
F       -3.49632100       0.32633300       0.08107700
F        5.91913800      -1.05801500       1.36811000
F        4.43092800      -2.48355000       2.01669200
F        4.26181900      -0.37584900       2.61372500
C       -4.45524700      -2.78485100       1.06557000
C       -4.09531200      -4.57856000      -0.53366700
C       -6.12706300      -4.51172300       0.78074100
C       -5.33201100      -5.12622700      -0.19273700
C       -5.68377900      -3.34471200       1.41246900
H       -4.10615700      -1.88459500       1.56217200
H       -6.29264900      -2.87248700       2.17790300
H       -7.08710500      -4.94337800       1.04920500
H       -5.67432600      -6.03101200      -0.68648900
H       -3.47899300      -5.05089700      -1.29331400
C        6.45062600      -0.08537200      -2.01169000
C        5.90319900       1.38518600      -0.16269600
C        7.99252800       1.66266200      -1.35577000
C        7.10797400       2.06320700      -0.34826000
C        7.66218400       0.58640800      -2.18533700
H        6.19186300      -0.92157900      -2.65533200
H        8.34627500       0.26984300      -2.96778000
H        8.93301400       2.18869100      -1.49469300
H        7.35533500       2.90455000       0.29307100
H        5.21623100       1.69732000       0.61837800
C        1.26377700      -4.20195700      -0.28891200
H        1.92093800      -4.03786900      -1.14977100
H        1.84845400      -4.01642900       0.61961800
H        0.92024900      -5.23845700      -0.28798000
C        1.22916500      -0.85976900      -3.15281800
H        1.82617800      -0.70650300      -4.05496600
H        0.69011300      -1.80950000      -3.24228000
H        0.48622400      -0.05615800      -3.09010700
