83
Properties=species:S:1:pos:R:3 pbc="F F F"
Si      -0.39890600       1.19931800       1.07491500
O       -0.03216100       2.28231600      -0.10650700
C        0.92359300       3.32880300      -0.27734400
C        2.11802200       2.82831800      -1.06892400
H        1.26009700       3.69650900       0.69732900
C        2.03798600       1.69316300      -1.88394800
C        3.33231600       3.51897200      -0.97381400
C        3.16618100       1.24144200      -2.57538000
H        1.10097400       1.15081200      -1.95576700
C        4.45843200       3.07257700      -1.66837500
H        3.40367900       4.39421400      -0.33194800
C        4.38028600       1.92662900      -2.46752600
H        3.09791700       0.34987400      -3.19356700
H        5.39921000       3.60825800      -1.57377000
H        5.25927100       1.56846400      -2.99679000
C        0.21320500       4.48370700      -1.02701600
C       -0.88550300       5.06669900      -0.26031500
H        0.96465600       5.25025300      -1.25253500
H       -0.15426200       4.09504500      -1.98557400
C       -1.79030700       5.52722100       0.39687200
H       -2.58912800       5.93728200       0.97511200
Cl       0.46426200       2.30571100       2.79323700
Cl      -2.31530000       1.14122400       1.99239200
O       -0.97008200       0.19591700      -0.42360500
O        0.57781300      -0.18395400       1.62832000
C       -1.26754700      -1.95640200       0.36006600
C        0.19620000      -2.11171000       0.31541300
C        2.43438200      -1.34403100       0.81742200
C       -3.12242400      -0.71124600      -0.55920400
C       -4.00246200      -1.72610600      -0.11335400
C       -2.10989300      -2.99095300       0.73814100
C       -3.47862900      -2.84608800       0.54805600
C        0.71144600      -3.21461300      -0.35203800
C        2.08215600      -3.34360900      -0.51864500
C        2.95459200      -2.40015600       0.02911800
H       -1.68711100      -3.87861300       1.19294000
H       -4.15710200      -3.61565600       0.89971200
H        0.02070800      -3.92525200      -0.78893400
H        2.48409900      -4.17072500      -1.09384800
C        4.40885400      -2.54850000      -0.22061000
C        3.33915300      -0.50673200       1.70128900
N       -1.81153700      -0.83530300      -0.19490000
N        1.06971200      -1.20492200       0.85529300
C       -3.51904600       0.35572400      -1.56579000
C       -5.46721900      -1.62903000      -0.30963900
C       -6.16025500      -0.45813500       0.04458800
C       -6.18718600      -2.73125500      -0.80042300
C       -8.25504300      -1.48730500      -0.59830200
C       -7.57289600      -2.65658000      -0.95001800
C       -7.54600500      -0.39033200      -0.09661000
H       -5.61171600       0.38857800       0.44541300
H       -8.07182800       0.51632300       0.18891400
H       -9.33402900      -1.43160200      -0.71232100
H       -8.11853000      -3.50982600      -1.34298900
H       -5.65721800      -3.63697300      -1.08209500
C        5.04690900      -3.77065500       0.04672300
C        5.14575500      -1.49294600      -0.78374600
C        7.13628100      -2.87173000      -0.78547600
C        6.50127700      -1.65726300      -1.06746600
C        6.40679400      -3.92676500      -0.22764500
H        4.48174000      -4.58782700       0.48667500
H        6.89567300      -4.87084700      -0.00443100
H        8.19368000      -2.99640000      -1.00152700
H        7.05926100      -0.83767300      -1.51164400
H        4.65318100      -0.55479900      -1.01747200
C        3.51333600       0.95242500       1.25257600
C        2.98194500      -0.62006100       3.20207800
H        4.31468500      -0.98271600       1.59004200
C       -2.71905800       0.15399300      -2.87631400
H       -4.55946500       0.12688900      -1.80056000
C       -3.47763300       1.82705600      -1.11598900
H       -3.15963200       0.80128100      -3.64203900
H       -1.66950600       0.42924600      -2.74948300
H       -2.78161100      -0.88354600      -3.22300700
H       -2.45455400       2.17437700      -0.96566100
H       -3.93586100       2.42533700      -1.91140000
H       -4.04308900       1.98422300      -0.19425400
H        2.60028400       1.52579700       1.39761500
H        4.29823300       1.40411100       1.86896900
H        3.81112800       1.02119900       0.20506400
H        2.11734500      -0.01055600       3.46536300
H        2.79344600      -1.66158100       3.48593200
H        3.84795100      -0.26165300       3.76904900
