83
Properties=species:S:1:pos:R:3 pbc="F F F"
Si      -0.18702900       1.70419800       0.77269100
O        1.37244900       1.82314200       0.27291200
C        2.20991200       2.16882100      -0.84696300
C        1.88834200       1.33175000      -2.06688600
H        3.21452500       1.90166700      -0.50326500
C        0.62791800       1.37692800      -2.67926000
C        2.87741600       0.50267000      -2.60621600
C        0.35550900       0.57609900      -3.79027200
H       -0.14125700       2.03369500      -2.28772900
C        2.61356600      -0.28925000      -3.72694500
H        3.85828800       0.48013600      -2.13879300
C        1.34642500      -0.26137200      -4.31555300
H       -0.62735800       0.61384800      -4.25269500
H        3.39155800      -0.93129100      -4.13121400
H        1.13329700      -0.88189100      -5.18181500
C        2.23420100       3.68089500      -1.17316700
C        2.60060800       4.50276700      -0.02361700
H        2.97719100       3.80712000      -1.97188300
H        1.26763800       3.99529600      -1.57678000
C        2.91460300       5.15891400       0.94269600
H        3.18196400       5.74772200       1.79272200
Cl      -0.64302400       2.23575700       2.76705800
Cl      -0.92592500       3.61408800      -0.07080600
O       -1.40436400       0.95460500      -0.29140200
O        0.16991600       0.00160700       1.50505700
C       -1.24024700      -1.40530200      -0.30739700
C        0.23060300      -1.39708900      -0.33489700
C        2.24606200      -0.96749800       0.93928000
C       -3.37237300      -0.27455000      -0.11488100
C       -4.02054700      -1.53376100      -0.08354900
C       -1.88832900      -2.63161000      -0.38258000
C       -3.26655500      -2.69736200      -0.25720000
C        0.93736600      -2.16004900      -1.25085000
C        2.29565600      -2.35741400      -1.05347000
C        2.94561800      -1.82993800       0.06777900
H       -1.29112800      -3.52983700      -0.47823400
H       -3.76631500      -3.65982100      -0.26353600
H        0.41334100      -2.60585000      -2.08624800
H        2.86083700      -2.96680900      -1.75008500
C        4.36201300      -2.22333900       0.28480300
C        2.81224900      -0.21216200       2.12459400
N       -2.00107100      -0.27294600      -0.17652500
N        0.90719500      -0.79486700       0.68602100
C       -4.16020300       1.01704300      -0.20512200
C       -5.48530600      -1.66994000       0.10959100
C       -6.11851400      -1.10442500       1.22922600
C       -6.24031600      -2.43056400      -0.79801800
C       -8.23532200      -2.03945100       0.51738900
C       -7.61065400      -2.60643800      -0.59800300
C       -7.48552400      -1.29258500       1.43252800
H       -5.53554500      -0.53195600       1.94385000
H       -7.96368600      -0.85908100       2.30625400
H       -9.30103700      -2.18048500       0.67425500
H       -8.18905300      -3.18474500      -1.31285400
H       -5.75549400      -2.86661700      -1.66716600
C        4.71330200      -3.02818800       1.37762700
C        5.34525300      -1.85016300      -0.64228700
C        7.02383900      -3.02047600       0.65267600
C        6.67284800      -2.23788100      -0.45219800
C        6.03939400      -3.42416800       1.56015300
H        3.94776400      -3.35514100       2.07302200
H        6.30189500      -4.04951500       2.40880200
H        8.05704100      -3.32231000       0.79995700
H        7.43117400      -1.92905500      -1.16622400
H        5.07334800      -1.24234700      -1.49963000
C        2.61003600      -1.00793500       3.43389800
C        4.26373200       0.27354600       1.96366200
H        2.20179700       0.68366200       2.21346800
C       -3.91323300       1.78092300      -1.52751000
H       -5.19764900       0.68617700      -0.24977600
C       -4.04723500       1.92011400       1.03755300
H       -4.71064100       2.52518000      -1.62874500
H       -2.95370500       2.29680200      -1.53455000
H       -3.96919800       1.10165000      -2.38583600
H       -3.07268500       2.40040900       1.10777400
H       -4.80870800       2.70306400       0.95464500
H       -4.23368900       1.35472400       1.95647400
H        3.23879900      -1.90204500       3.45604000
H        2.89377200      -0.36573000       4.27470000
H        1.56278800      -1.30041300       3.55953100
H        4.43085900       1.05450800       2.71296400
H        4.99514200      -0.51975500       2.12611300
H        4.43511400       0.70742000       0.97381800
