83
Properties=species:S:1:pos:R:3 pbc="F F F"
Si       0.11852000       0.99560500       0.05809100
O        0.09521400       2.64303100       0.10164000
C       -0.78364400       3.62696000       0.69079200
C       -2.00929100       3.82466300      -0.17188800
H       -1.07963600       3.31473000       1.69460800
C       -1.89518700       3.90303900      -1.56664900
C       -3.26686100       3.96391000       0.42438300
C       -3.02869900       4.11475900      -2.35412000
H       -0.92086700       3.77772400      -2.03053000
C       -4.40190100       4.17908100      -0.36226400
H       -3.35658600       3.88900200       1.50550200
C       -4.28468100       4.25446000      -1.75325800
H       -2.93337300       4.16703700      -3.43558000
H       -5.37630300       4.27697600       0.10918000
H       -5.16749300       4.41456400      -2.36665400
C        0.03404500       4.93658900       0.79388200
C        1.16013000       4.83837100       1.71989500
H       -0.65138400       5.72762800       1.12337800
H        0.38463700       5.20745600      -0.20997100
C        2.07903400       4.73573700       2.49955500
H        2.89771100       4.64651500       3.17921600
Cl      -1.40109000       0.73175800       1.69688500
Cl       1.56769400       1.20039300      -1.65093800
O       -0.63712000      -0.22667400      -1.00066000
O        1.16179500      -0.01358600       1.07283000
C       -0.16235400      -2.23657500       0.07894200
C        1.29199800      -2.01364000      -0.11280400
C        3.29389300      -0.76724800       0.45547100
C       -2.44693000      -1.61732600      -0.44830600
C       -2.90153900      -2.76143900       0.25406000
C       -0.59997200      -3.40455400       0.68202200
C       -1.96394700      -3.64191000       0.80419100
C        2.05132800      -2.96301400      -0.77728900
C        3.42327300      -2.77659000      -0.90163500
C        4.06217200      -1.68661300      -0.30030900
H        0.13283200      -4.09612100       1.07940100
H       -2.31205700      -4.52248100       1.33315600
H        1.55351500      -3.81584700      -1.22213200
H        4.01213100      -3.48376400      -1.47575400
C        5.52314600      -1.52359400      -0.48234500
C        3.91546600       0.25011900       1.39433500
N       -1.10473600      -1.37432300      -0.41829500
N        1.94184000      -0.94165400       0.43754400
C       -3.35375900      -0.79440800      -1.34460300
C       -4.34344100      -3.05244400       0.42848500
C       -5.21875800      -2.06910400       0.92174900
C       -4.83652500      -4.34011100       0.15895900
C       -7.05116000      -3.65017100       0.85281700
C       -6.18545200      -4.63377700       0.36377000
C       -6.56382600      -2.36950000       1.13548400
H       -4.83895000      -1.07848300       1.15126100
H       -7.22961600      -1.60527900       1.52620100
H       -8.10033000      -3.88076000       1.01517300
H       -6.55987700      -5.62866400       0.14009600
H       -4.16626700      -5.10250500      -0.22837400
C        6.38454700      -2.61107900      -0.26179300
C        6.05454300      -0.30351300      -0.93520800
C        8.27974600      -1.25728300      -0.92407400
C        7.42517000      -0.17419200      -1.15765900
C        7.75713500      -2.47435200      -0.47501300
H        5.97944800      -3.55423000       0.09458000
H        8.41724700      -3.31686300      -0.28927600
H        9.34786000      -1.15357400      -1.09334200
H        7.82470000       0.76978100      -1.51711300
H        5.38952900       0.53282900      -1.12738500
C        3.67335300       1.73694800       1.07766800
C        3.55912500      -0.08536500       2.86359000
H        4.98798200       0.08063200       1.29654800
C       -2.89360800      -0.86803400      -2.82102800
H       -4.30997600      -1.31721400      -1.29868200
C       -3.62272500       0.65672800      -0.91253300
H       -3.70648000      -0.47245100      -3.43921000
H       -1.99869500      -0.26846900      -2.99868000
H       -2.70081300      -1.90255800      -3.12570600
H       -2.75362300       1.29616500      -1.06600800
H       -4.43981300       1.04253900      -1.53001000
H       -3.91512800       0.72068600       0.13742900
H        3.87711900       1.96473700       0.02872900
H        2.65431300       2.04988400       1.30873100
H        4.35658600       2.32103000       1.70373100
H        2.51047700       0.12426400       3.08507100
H        3.77389400      -1.13537100       3.09100400
H        4.18383200       0.54193300       3.50818700
