83
Properties=species:S:1:pos:R:3 pbc="F F F"
Si       0.19100200       1.78178100      -0.33031600
O       -1.37260500       1.62190800       0.17562000
C       -2.05721300       1.98217500       1.39936300
C       -2.19157800       0.73267300       2.25398400
H       -1.45512900       2.71544100       1.94156400
C       -3.37457500      -0.00996500       2.34875400
C       -1.05884400       0.29166900       2.95719600
C       -3.42652500      -1.16880200       3.12918800
H       -4.26672500       0.30291300       1.81722600
C       -1.10559400      -0.86773600       3.73243200
H       -0.13867900       0.86694800       2.89827600
C       -2.29269600      -1.60269200       3.82055900
H       -4.35348300      -1.73247200       3.19104400
H       -0.22040000      -1.19334800       4.27253000
H       -2.33405100      -2.50402000       4.42621500
C       -3.39549200       2.63999500       1.02019600
C       -3.22201200       3.87659100       0.26362000
H       -3.94819200       2.83902500       1.94697200
H       -3.99759200       1.93454700       0.43552700
C       -3.06178700       4.89496600      -0.36755100
H       -2.91610900       5.79544300      -0.92304300
Cl       0.75403900       2.80578300      -2.09559000
Cl       0.75289100       3.47763000       0.98837900
O        1.40322100       0.86090700       0.59139900
O       -0.05685000       0.32043100      -1.48521300
C        1.36524900      -1.42648600       0.01150300
C       -0.10397900      -1.47857100      -0.02477000
C       -2.07529900      -0.86921900      -1.27707400
C        3.44332900      -0.20176900       0.21038100
C        4.15343500      -1.38735900      -0.10184000
C        2.06686600      -2.60685100      -0.19318700
C        3.45072300      -2.58521000      -0.26438900
C       -0.81199800      -2.44034100       0.67963700
C       -2.17559700      -2.56090000       0.46614900
C       -2.82389300      -1.79566200      -0.51368400
H        1.50871800      -3.52132200      -0.35280500
H        3.99658300      -3.49837100      -0.47551600
H       -0.29253300      -3.05373500       1.40461700
H       -2.75394200      -3.25765200       1.06023100
C       -4.28408200      -1.96723300      -0.68770800
C       -2.59613200      -0.23535800      -2.55442100
N        2.07283600      -0.27036900       0.20459100
N       -0.76828400      -0.69272700      -0.91904000
C        4.15971700       1.05840500       0.65304400
C        5.62998300      -1.41675500      -0.24652100
C        6.28569000      -0.55705600      -1.14403500
C        6.37927800      -2.36328500       0.47168600
C        8.41016900      -1.57661100      -0.58598100
C        7.76353600      -2.43612100       0.30758500
C        7.66762900      -0.64073800      -1.31439200
H        5.71015100       0.16424100      -1.71573700
H        8.16324600       0.02234800      -2.01767500
H        9.48705700      -1.63671100      -0.71610100
H        8.33539900      -3.16269700       0.87776000
H        5.87782700      -3.02792800       1.16988000
C       -4.84568300      -3.25551300      -0.70988900
C       -5.13678900      -0.85227000      -0.75880500
C       -7.06695200      -2.30562100      -0.88118900
C       -6.51752200      -1.01936300      -0.85093700
C       -6.22735700      -3.42226700      -0.81319500
H       -4.19589300      -4.12493700      -0.66452700
H       -6.64747500      -4.42361800      -0.84258600
H       -8.14272100      -2.43659400      -0.95708800
H       -7.16296700      -0.14678900      -0.89559700
H       -4.71411400       0.14580600      -0.73319700
C       -2.80614200       1.28882000      -2.55464300
C       -1.73892500      -0.67855700      -3.76450200
H       -3.57819800      -0.68937600      -2.69396800
C        3.82205200       1.46713800       2.10624400
H        5.21045900       0.76975800       0.66824400
C        4.04275100       2.23422000      -0.33523200
H        4.57143300       2.20174400       2.42048200
H        2.83449300       1.92049300       2.18875700
H        3.88645700       0.60476300       2.77954500
H        3.04673800       2.67383100      -0.32638100
H        4.75976000       3.00393000      -0.02976800
H        4.28578900       1.92189000      -1.35620700
H       -3.36927800       1.54577900      -3.45852700
H       -3.37202900       1.62559700      -1.68444400
H       -1.85660900       1.82332500      -2.57348300
H       -0.75600200      -0.20276300      -3.75373100
H       -1.61406000      -1.76711300      -3.78360400
H       -2.26422300      -0.37566500      -4.67665700
