83
Properties=species:S:1:pos:R:3 pbc="F F F"
Si      -0.38637300       1.26173300       1.33614800
O        0.17818200       2.50528900       0.41384100
C        0.18197100       2.80670400      -1.00976300
C        1.46612400       2.30350100      -1.64057300
H       -0.66506800       2.31238600      -1.48728000
C        2.65728400       3.04018600      -1.58846100
C        1.47236700       1.05340300      -2.27645000
C        3.82670600       2.54164200      -2.16747300
H        2.68399600       4.00352300      -1.08921600
C        2.64213700       0.54663600      -2.84712100
H        0.55419400       0.47635400      -2.31938400
C        3.82271200       1.29428400      -2.79929200
H        4.74165200       3.12602900      -2.12117600
H        2.63110700      -0.42547200      -3.33294100
H        4.73318100       0.90615500      -3.24715800
C       -0.00730000       4.33209100      -1.14137500
C       -1.30508200       4.78990500      -0.65107700
H        0.10727700       4.59479200      -2.20074200
H        0.79056500       4.84377300      -0.59095500
C       -2.38215400       5.15608100      -0.24183700
H       -3.33476400       5.47287600       0.12225300
Cl       0.34464300       2.23985700       3.17839300
Cl      -2.33769000       1.05327000       2.17427700
O       -0.92222900       0.36855400      -0.24720900
O        0.63964300      -0.12305500       1.77850300
C       -1.03739700      -1.86865800       0.32129000
C        0.43240800      -1.91044000       0.26558500
C        2.60093600      -1.02859100       0.87698700
C       -3.00022300      -0.70460700      -0.46635600
C       -3.78790400      -1.82326600      -0.10196300
C       -1.78734500      -2.99881100       0.60759800
C       -3.16627800      -2.95124300       0.44992400
C        1.03206000      -2.90487100      -0.49312600
C        2.41157800      -2.93200200      -0.62449300
C        3.21021700      -1.99088000       0.03166200
H       -1.28457400      -3.88689200       0.97089900
H       -3.77351700      -3.80264600       0.73731100
H        0.40046400      -3.61654100      -1.01044300
H        2.88051700      -3.67944100      -1.25510100
C        4.67896800      -2.06636200      -0.16505600
C        3.42024100      -0.14619200       1.79617300
N       -1.67691100      -0.74592500      -0.12143800
N        1.22963800      -1.00377700       0.90858400
C       -3.50562500       0.39004700      -1.38967900
C       -5.25840100      -1.83121300      -0.27987100
C       -6.04280700      -0.76217000       0.18726900
C       -5.88940600      -2.93940500      -0.86982500
C       -8.05166300      -1.90044600      -0.54097600
C       -7.27813900      -2.96922800      -1.00532600
C       -7.43100300      -0.79959900       0.05940400
H       -5.56362000       0.08604800       0.66570600
H       -8.02766400       0.02787400       0.43263600
H       -9.13287700      -1.92619300      -0.64378200
H       -7.75488400      -3.82522400      -1.47445500
H       -5.28858000      -3.76635200      -1.23805500
C        5.33511600      -3.29919600      -0.00812300
C        5.41761500      -0.94217800      -0.56939600
C        7.43737600      -2.27576800      -0.63751000
C        6.78734700      -1.04884200      -0.80826100
C        6.70852100      -3.39973300      -0.23563900
H        4.77126800      -4.17166100       0.31059700
H        7.20818300      -4.35433300      -0.09734500
H        8.50570000      -2.35603100      -0.81796500
H        7.34525600      -0.17444500      -1.13143700
H        4.91316400       0.00529700      -0.71778600
C        3.43115500       1.33771100       1.38484700
C        3.10459400      -0.35538100       3.29540100
H        4.43938200      -0.50889400       1.66147900
C       -2.69550000       0.37390700      -2.70877200
H       -4.51551300       0.06937500      -1.65014700
C       -3.62992500       1.81369100      -0.82518300
H       -3.20763200       1.02214200      -3.42720900
H       -1.68135500       0.75196200      -2.56582300
H       -2.64229900      -0.63644200      -3.12926700
H       -2.66229400       2.25087800      -0.58333300
H       -4.10281700       2.43513500      -1.59312600
H       -4.25067000       1.83769600       0.07380900
H        2.46296600       1.81461700       1.52882100
H        4.16521400       1.85593200       2.01169300
H        3.72213000       1.45500700       0.33859500
H        3.93546300       0.07629600       3.86410700
H        2.18227700       0.13905100       3.59768700
H        3.04367300      -1.42268400       3.53698800
