83
Properties=species:S:1:pos:R:3 pbc="F F F"
Si       0.04591300       0.91164500       0.55709800
O       -0.22812300       2.48723000       0.95215500
C        0.12061300       3.76266200       0.34940600
C       -0.92894900       4.14831300      -0.66740400
H        1.09392100       3.68784700      -0.13792300
C       -2.26576400       4.33250900      -0.28648500
C       -0.57098900       4.31443600      -2.01044000
C       -3.22902400       4.67805500      -1.23545300
H       -2.55443100       4.18860000       0.75097000
C       -1.53396000       4.66159800      -2.96318600
H        0.46355000       4.16317300      -2.30719800
C       -2.86521600       4.84334700      -2.57695200
H       -4.26339900       4.81374800      -0.93068600
H       -1.24551400       4.78628600      -4.00368700
H       -3.61596000       5.11087600      -3.31597400
C        0.21953300       4.78185800       1.50505800
C        1.30346300       4.47701300       2.43692100
H        0.37718100       5.77207100       1.05907600
H       -0.73921300       4.81487100       2.03675200
C        2.21281800       4.20575000       3.18681400
H        3.01123900       3.96783900       3.85476100
Cl      -1.33080000       0.37780000       2.24324600
Cl       1.55161900       1.36612500      -1.06266100
O       -0.82954400       0.03754800      -0.70950600
O        1.04551900      -0.38865900       1.26436700
C       -0.47004000      -2.20367800      -0.16488200
C        0.99278100      -2.04854900      -0.36414600
C        3.10123200      -1.14432000       0.42466800
C       -2.71617400      -1.31244700      -0.39295300
C       -3.23824700      -2.55952900       0.03258300
C       -0.98177600      -3.44693100       0.17065600
C       -2.35512600      -3.60996400       0.30512700
C        1.65921900      -2.86666400      -1.26172800
C        3.04083300      -2.76697800      -1.38065100
C        3.77890400      -1.91316800      -0.55355500
H       -0.29466400      -4.26237100       0.36019500
H       -2.75417600      -4.56559600       0.62739400
H        1.08509500      -3.54549100      -1.88043200
H        3.56033900      -3.35852900      -2.12675500
C        5.24627600      -1.83207100      -0.73499200
C        3.81605600      -0.44097400       1.56428200
N       -1.35762000      -1.18318300      -0.38923700
N        1.73926400      -1.19676700       0.40552900
C       -3.58185600      -0.21842600      -0.99009800
C       -4.69227300      -2.78858700       0.20258000
C       -5.47785700      -1.90029100       0.95745500
C       -5.28741300      -3.93852900      -0.34356300
C       -7.42363500      -3.29525200       0.59720700
C       -6.64768200      -4.18510800      -0.15245100
C       -6.83452100      -2.15543600       1.15518200
H       -5.02002200      -1.02215900       1.40139300
H       -7.42968900      -1.46703800       1.74828400
H       -8.48174200      -3.48987000       0.74815000
H       -7.10081700      -5.07006000      -0.59012200
H       -4.68717500      -4.62633300      -0.93279000
C        6.01020200      -3.00777500      -0.82067200
C        5.87926000      -0.58581000      -0.88376800
C        8.01204700      -1.69310800      -1.17742900
C        7.25418500      -0.51890900      -1.10684800
C        7.38784400      -2.93639700      -1.03371300
H        5.52552700      -3.97292100      -0.70086900
H        7.97259600      -3.85041500      -1.08511200
H        9.08391500      -1.63899200      -1.34604100
H        7.73256100       0.44858700      -1.22947400
H        5.28867900       0.32428100      -0.84060600
C        3.70442600       1.09323900       1.62651800
C        3.44102100      -1.09373300       2.91766500
H        4.86929800      -0.66915800       1.39851200
C       -3.20099800       0.06616000      -2.46359600
H       -4.57959200      -0.65780200      -1.01505600
C       -3.69058100       1.08460700      -0.17845600
H       -4.01102100       0.65730700      -2.90370500
H       -2.27413100       0.63733400      -2.54337700
H       -3.10311300      -0.86335700      -3.03514700
H       -2.76660900       1.66093200      -0.21179400
H       -4.48436400       1.69013200      -0.62831400
H       -3.94152100       0.89116500       0.86730100
H        3.94949900       1.55550900       0.66749900
H        2.70864200       1.42222300       1.92689100
H        4.41956800       1.44378400       2.37860800
H        2.41924900      -0.85017000       3.21672800
H        3.55480400      -2.18251300       2.87504600
H        4.12867400      -0.70431000       3.67579500
