89
Properties=species:S:1:pos:R:3 pbc="F F F"
Si       0.24951400       1.32124200      -0.11686100
O       -1.37552500       1.29639100       0.21885400
C       -2.18872700       2.15323400       1.03672400
C       -2.79848200       3.29242200       0.24024800
H       -1.58628600       2.57334400       1.84567500
C       -2.75009400       3.34862300      -1.15583400
C       -3.43986500       4.32489100       0.94079000
C       -3.34146500       4.41374400      -1.84352800
H       -2.24444000       2.56686700      -1.71025400
C       -4.03201300       5.38790400       0.25721200
H       -3.46655100       4.30107600       2.02813700
C       -3.98668800       5.43425200      -1.14115400
H       -3.29306400       4.44413600      -2.92896900
H       -4.52133100       6.18236900       0.81458100
H       -4.44386900       6.26268700      -1.67565200
C       -3.28690300       1.27456200       1.68444000
C       -2.74384200       0.26484300       2.58790300
H       -3.95973600       1.94124400       2.23640800
H       -3.88138700       0.80808500       0.89155100
C       -2.27329700      -0.55777500       3.33886200
H       -1.86805200      -1.28758000       4.00442600
Cl       1.10275100       2.00191300      -1.92903200
Cl       0.71678300       3.20041200       0.96946000
O        1.32589500       0.49190100       1.03616100
O        0.02152000      -0.28160300      -1.05574200
C        1.56550900      -1.75446600       0.45896800
C        0.10387700      -1.94363400       0.50399600
C       -1.96741500      -1.56695300      -0.71362500
C        3.52194800      -0.33128500       0.69230600
C        4.28610400      -1.37754300       0.10541200
C        2.35947300      -2.84324900       0.13947300
C        3.70936500      -2.63519700      -0.09276800
C       -0.47358300      -2.90383100       1.30653300
C       -1.83463300      -3.13097300       1.16647600
C       -2.58463100      -2.49638000       0.17094100
H        1.89176100      -3.80587000      -0.02617700
H        4.32670400      -3.44089300      -0.47614800
H        0.13145000      -3.43604600       2.03034400
H       -2.33380100      -3.83406000       1.82420200
C       -4.02824200      -2.89779100       0.16853400
C       -2.64242000      -1.05349100      -2.01737900
N        2.15530600      -0.54456900       0.69284700
N       -0.65773800      -1.26655600      -0.40756800
C        4.12967200       0.89102500       1.42978000
C        5.66593600      -1.19385900      -0.40299200
C        5.90424100      -0.22491800      -1.39042400
C        6.71055600      -2.03296300       0.01272500
C        8.22921500      -0.89084100      -1.48868500
C        7.98911000      -1.87364300      -0.52134500
C        7.18255900      -0.07495800      -1.92942600
H        5.08620800       0.39546400      -1.74198400
H        7.35901100       0.67548900      -2.69475900
H        9.22590300      -0.76802700      -1.90308000
H        8.79871100      -2.51319000      -0.18134100
H        6.52457000      -2.78477600       0.77466900
C       -4.40047100      -4.16348300      -0.30870100
C       -4.98374200      -2.10115300       0.81205600
C       -6.68022000      -3.78458700       0.41497500
C       -6.30549800      -2.53955900       0.92704200
C       -5.72222900      -4.59881600      -0.19769900
H       -3.65585500      -4.79737300      -0.78146900
H       -6.00054400      -5.57479600      -0.58542500
H       -7.70859100      -4.12376700       0.50281600
H       -7.03717200      -1.90900500       1.42434400
H       -4.68994600      -1.14964800       1.23911900
C        3.36149400       1.16637800       2.75957600
C        5.59234500       0.60319800       1.86875100
C        4.13973100       2.15203300       0.53852700
H        3.97372500       1.85263800       3.35186600
H        2.39173200       1.62970600       2.60507500
H        3.23672500       0.24076700       3.33392800
H        5.88426700       1.40836700       2.54935000
H        5.67231100      -0.34749400       2.40609000
H        6.29836800       0.60567000       1.04074000
H        4.49889000       2.99147000       1.14440900
H        4.82368800       2.01849000      -0.30374000
H        3.14836500       2.40036700       0.16345700
C       -3.87130600      -0.17000900      -1.70975100
C       -1.75989800      -0.25013500      -3.00304700
C       -3.09390300      -2.31731600      -2.80852000
H       -3.89072200      -2.86516900      -2.31067700
H       -3.47545200      -1.98068900      -3.77793700
H       -2.24761700      -2.99041700      -2.98525800
H       -3.56186000       0.74595700      -1.20400800
H       -4.32683300       0.10866300      -2.66639800
H       -4.62375900      -0.68626100      -1.11548800
H       -1.47556800       0.72563300      -2.61484700
H       -0.85921300      -0.79340300      -3.29743100
H       -2.37350500      -0.09241000      -3.89674300
