89
Properties=species:S:1:pos:R:3 pbc="F F F"
Si      -0.25070400       1.64141200       0.57419600
O        1.35773600       1.64649400       0.19386500
C        2.11660400       2.34478500      -0.82492000
C        2.38895100       1.36968000      -1.95743700
H        1.51676400       3.17059400      -1.21337700
C        1.32097700       1.03740300      -2.80714400
C        3.63502000       0.77309200      -2.17662800
C        1.49257300       0.11915200      -3.84300500
H        0.35171100       1.50246000      -2.65080300
C        3.80977000      -0.15214300      -3.21055900
H        4.48192500       1.02186800      -1.54789100
C        2.73908800      -0.48412100      -4.04409400
H        0.65697400      -0.12434800      -4.49395400
H        4.78299500      -0.61155700      -3.36012900
H        2.87519700      -1.20230800      -4.84827900
C        3.37191600       2.93496000      -0.16048000
C        3.05184700       3.92041700       0.86886200
H        3.98615700       3.39472900      -0.94486200
H        3.96787500       2.12969800       0.28307100
C        2.76922800       4.72592300       1.72472300
H        2.51683900       5.44051300       2.47724400
Cl      -1.03321400       2.16238700       2.47065800
Cl      -0.77156000       3.60423100      -0.32726600
O       -1.33972400       0.94549600      -0.64531300
O       -0.02479900      -0.05106000       1.35630300
C       -1.30089000      -1.39109200      -0.56933900
C        0.17030000      -1.42680200      -0.47745000
C        2.03397400      -1.19601200       1.06084000
C       -3.41127200      -0.18010000      -0.60061300
C       -4.06608100      -1.41726300      -0.35515700
C       -1.97074600      -2.60474600      -0.59751700
C       -3.34678400      -2.61283900      -0.44347300
C        0.93605800      -2.16329900      -1.36365400
C        2.29043100      -2.28910400      -1.10773900
C        2.85881100      -1.81195800       0.08397100
H       -1.39485100      -3.52151500      -0.62181700
H       -3.87579900      -3.55309300      -0.32793500
H        0.47592700      -2.57924000      -2.25078500
H        2.93417700      -2.76570000      -1.83693400
C        4.33376700      -1.91926900       0.18374800
C        2.35580000      -1.00356600       2.56493300
N       -2.02852500      -0.23401800      -0.56129700
N        0.75609100      -0.90212200       0.63574500
C       -4.12144500       1.12868000      -1.03118400
C       -5.47267900      -1.52730000       0.09891600
C       -5.85318600      -0.88477000       1.28783000
C       -6.39389800      -2.34046200      -0.57653200
C       -8.07565200      -1.82201300       1.08715500
C       -7.69373200      -2.47772000      -0.08858100
C       -7.15078500      -1.03292900       1.77864000
H       -5.13092700      -0.27729500       1.82447800
H       -7.43795900      -0.53397900       2.69981700
H       -9.08786700      -1.93144000       1.46615400
H       -8.40875700      -3.09421100      -0.62595000
H       -6.09783900      -2.83826600      -1.49586300
C        4.98093500      -3.13345700      -0.09168700
C        5.10589600      -0.77702100       0.43920800
C        7.13679200      -2.06046100       0.16738000
C        6.49797100      -0.84382400       0.42883700
C        6.37465800      -3.20518800      -0.08932700
H        4.38998500      -4.02406900      -0.28685400
H        6.86503200      -4.15402900      -0.28787200
H        8.22172500      -2.11597500       0.16263000
H        7.08185500       0.05112100       0.62413600
H        4.60576700       0.16032800       0.65067100
C       -5.59372200       0.88652600      -1.45685700
C       -4.12800000       2.16972500       0.10912800
C       -3.43680400       1.70116200      -2.31213200
H       -5.93612700       1.80620800      -1.94066300
H       -5.68008600       0.06747300      -2.17734300
H       -6.25774700       0.69519900      -0.61614100
H       -4.63439400       3.06952900      -0.25806900
H       -4.68632600       1.78701700       0.96934600
H       -3.12512300       2.44897400       0.42501600
H       -4.05530300       2.53213800      -2.66417500
H       -2.43448100       2.07962700      -2.13697800
H       -3.41099700       0.93901100      -3.09944600
C        2.57190800       0.47472200       2.95479200
C        1.18430700      -1.61365600       3.39761200
C        3.60607200      -1.80447900       3.00878400
H        4.54217400      -1.33965800       2.70517100
H        3.59157500      -1.83413800       4.10275200
H        3.58515700      -2.83350600       2.63742700
H        1.68120800       1.07837400       2.79112100
H        2.82626300       0.50529700       4.02041800
H        3.40317900       0.90971000       2.39243600
H        0.24215300      -1.08735200       3.26008500
H        1.05165100      -2.67239600       3.14546700
H        1.46479700      -1.54630700       4.45319000
