89
Properties=species:S:1:pos:R:3 pbc="F F F"
Si      -0.14729500       1.47712800       0.86673600
O        1.46386100       1.53555000       0.55311900
C        2.44061500       2.04967800      -0.37474800
C        2.24450700       1.49475600      -1.77137400
H        3.38474300       1.65922800       0.01529200
C        1.05757000       1.70198400      -2.48734400
C        3.27862600       0.76200000      -2.36621700
C        0.89427400       1.14702500      -3.75837700
H        0.25911300       2.29303000      -2.05375000
C        3.12477400       0.22015600      -3.64534500
H        4.20514900       0.60548100      -1.82064800
C        1.92555800       0.40071900      -4.33948200
H       -0.03521700       1.30604000      -4.29888800
H        3.93540400      -0.34988900      -4.09129900
H        1.79726500      -0.02899200      -5.32936900
C        2.57735900       3.59100300      -0.37651200
C        2.81034100       4.13909200       0.95637100
H        3.43344500       3.81565400      -1.02657000
H        1.69504400       4.04904800      -0.83105000
C        3.00610500       4.56204600       2.07245700
H        3.17076300       4.94709900       3.05495900
Cl      -0.89234200       1.74958900       2.82842600
Cl      -0.67187700       3.53610800       0.23705100
O       -1.25659600       0.95947200      -0.42428000
O        0.04030700      -0.32608300       1.40371000
C       -1.24636200      -1.36512400      -0.68543900
C        0.22375200      -1.42360900      -0.60932600
C        2.10374300      -1.39803200       0.92515800
C       -3.33853200      -0.13258900      -0.55172300
C       -4.01141500      -1.38154400      -0.47619800
C       -1.93227100      -2.55407800      -0.88132200
C       -3.30828300      -2.56445000      -0.72481800
C        0.98238200      -2.02210800      -1.59938000
C        2.34277700      -2.16023200      -1.38183800
C        2.92372000      -1.84586200      -0.14268100
H       -1.36947200      -3.46598800      -1.03841300
H       -3.84929700      -3.50489000      -0.73687500
H        0.51442200      -2.30700700      -2.53312300
H        2.98366800      -2.51264300      -2.18124300
C        4.40362000      -1.91341800      -0.08134500
C        2.44410100      -1.43926700       2.43619400
N       -1.95735200      -0.21124700      -0.51282100
N        0.81734500      -1.05954200       0.56236200
C       -4.02461000       1.23202400      -0.81339800
C       -5.42148600      -1.52740200      -0.04317000
C       -5.79621700      -1.04084100       1.21942700
C       -6.35409800      -2.22746100      -0.82196400
C       -8.03350500      -1.90457700       0.89326800
C       -7.65796700      -2.40493300      -0.35858700
C       -7.09799100      -1.23016500       1.68454300
H       -5.06556900      -0.52320800       1.83351900
H       -7.37974000      -0.85228900       2.66321000
H       -9.04888200      -2.04598700       1.25271900
H       -8.38147200      -2.93142000      -0.97458700
H       -6.06431100      -2.60509800      -1.79859400
C        5.08698900      -3.05193400      -0.53652300
C        5.14157800      -0.79063300       0.32433100
C        7.20977300      -1.94999900      -0.15370600
C        6.53520100      -0.80654200       0.28603800
C        6.48202200      -3.07276200      -0.56233600
H        4.52376600      -3.92653200      -0.85042200
H        7.00051200      -3.96516600      -0.90134500
H        8.29569300      -1.96567000      -0.17970400
H        7.09185700       0.07183400       0.59980500
H        4.62072300       0.09244400       0.67738900
C       -5.49433300       1.06950100      -1.28167600
C       -4.03010800       2.11303200       0.45479800
C       -3.31541000       1.95218600      -2.00378500
H       -5.82113400       2.05036200      -1.63962900
H       -5.58101300       0.35664700      -2.10752700
H       -6.16938600       0.77332700      -0.48110900
H       -4.48223500       3.07718600       0.19707800
H       -4.63868000       1.64536600       1.23512200
H       -3.02940400       2.29858100       0.83993600
H       -3.92063500       2.82649900      -2.26149700
H       -2.31280500       2.29532200      -1.76819700
H       -3.28167700       1.29246500      -2.87889600
C        2.64642500      -0.04051200       3.05658300
C        1.28876200      -2.18737000       3.17231200
C        3.70919300      -2.28512000       2.72819200
H        4.63524400      -1.76642500       2.48680000
H        3.71410200      -2.48688200       3.80382700
H        3.69066600      -3.24321500       2.19970000
H        1.73935100       0.55892300       3.01287300
H        2.92755900      -0.17884200       4.10687600
H        3.45497900       0.49852600       2.55413600
H        0.34023400      -1.65589900       3.12622000
H        1.16408400      -3.19515800       2.75926900
H        1.57939400      -2.28233700       4.22306300
