89
Properties=species:S:1:pos:R:3 pbc="F F F"
Si       0.17128800       0.92841400       0.88114300
O       -0.59845800       2.42164900       0.95296600
C       -0.41630900       3.65264000       0.23616500
C       -1.60232000       3.93399600      -0.66431900
H        0.48733900       3.60426300      -0.37730000
C       -2.88728600       4.10043900      -0.13012100
C       -1.41685300       4.06542700      -2.04497400
C       -3.96685100       4.39785800      -0.96214900
H       -3.04232100       3.98660700       0.93864400
C       -2.49657800       4.36163600      -2.88334600
H       -0.42122100       3.93379600      -2.46312200
C       -3.77355000       4.53193800      -2.34198900
H       -4.95937800       4.52256200      -0.53695600
H       -2.34034800       4.45973400      -3.95449800
H       -4.61471700       4.76328700      -2.99021200
C       -0.24465000       4.78929300       1.27594300
C        0.92153200       4.62902400       2.14086700
H       -0.17558400       5.73820700       0.72835800
H       -1.15446900       4.83651100       1.88732800
C        1.88584000       4.49573700       2.85880000
H        2.73839700       4.37162600       3.48976600
Cl      -0.48177200       0.43464700       2.84271600
Cl       2.06899400       1.67108200       0.19652600
O       -0.83164600       0.39174000      -0.49040100
O        0.91551900      -0.84192800       1.00472800
C       -0.37982500      -1.81722500      -1.11032200
C        1.06790300      -1.54933400      -1.18321400
C        3.06974400      -1.35196600       0.17175000
C       -2.64296500      -1.12665800      -0.56657000
C       -3.01100500      -2.49895100      -0.58034000
C       -0.81481600      -3.10239800      -1.39620600
C       -2.11710700      -3.45133300      -1.07820200
C        1.81284900      -1.79615500      -2.32320500
C        3.19045700      -1.63985800      -2.24809300
C        3.83095500      -1.39747900      -1.02476300
H       -0.09660100      -3.83504200      -1.74301600
H       -2.43859500      -4.48467100      -1.15654700
H        1.30959100      -2.04483600      -3.24978400
H        3.79276400      -1.69660700      -3.14873200
C        5.27596100      -1.07232500      -1.07237700
C        3.58561800      -1.59908400       1.61042700
N       -1.28657400      -0.88456300      -0.69645000
N        1.70922200      -1.25238400      -0.01690500
C       -3.63877600       0.05559800      -0.60573500
C       -4.27127600      -3.00445100       0.00989700
C       -4.55414000      -2.70592000       1.35259800
C       -5.12855400      -3.85074700      -0.70824600
C       -6.56187300      -4.05216800       1.23359800
C       -6.27502700      -4.36309700      -0.10051800
C       -5.69521600      -3.22966800       1.96075600
H       -3.87508800      -2.07165200       1.91462000
H       -5.90589200      -2.99694100       3.00069700
H       -7.45399100      -4.45410400       1.70562900
H       -6.94541200      -5.00269700      -0.66759900
H       -4.91007500      -4.08159100      -1.74723600
C        6.19370300      -1.92446700      -1.70362600
C        5.71380000       0.15777600      -0.55591200
C        7.97446900      -0.34330000      -1.26047200
C        7.05782600       0.51983400      -0.65114000
C        7.53926900      -1.56441100      -1.78753900
H        5.85684500      -2.87681900      -2.10384700
H        8.24824300      -2.23688000      -2.26234100
H        9.02230500      -0.06447800      -1.32879700
H        7.38791500       1.47402700      -0.25026500
H        4.99741400       0.82517600      -0.08666500
C       -3.27429700       0.95171100      -1.82837700
C       -5.09503400      -0.39905100      -0.88059500
C       -3.64811200       0.86580800       0.70736700
H       -4.02465800       1.74289500      -1.89151000
H       -2.30356400       1.42999300      -1.74426200
H       -3.31651500       0.36058500      -2.75087500
H       -5.65915200       0.50548900      -1.12870000
H       -5.15673400      -1.08527200      -1.73007500
H       -5.57347300      -0.85707700      -0.01594700
H       -4.41430500       1.64227400       0.61537100
H       -3.91441200       0.21769400       1.54852500
H       -2.69685300       1.35232000       0.90767000
C        3.53330400      -0.35832900       2.52757900
C        2.71814100      -2.74403700       2.22191600
C        5.03574900      -2.14064700       1.62294200
H        5.77879800      -1.37119100       1.41674000
H        5.22175600      -2.52369700       2.63144100
H        5.16945500      -2.96383800       0.91453800
H        2.51326900      -0.00808900       2.68129700
H        3.95404100      -0.64628100       3.49771600
H        4.13629800       0.45644800       2.11701500
H        1.67434700      -2.46040000       2.35084200
H        2.77869600      -3.64383500       1.59865300
H        3.13500600      -2.97969100       3.20594200
