69
Properties=species:S:1:pos:R:3 pbc="F F F"
Si       0.16867800       1.15467400       0.35868000
O       -0.89651700       2.26904300      -0.28903300
C       -1.67497100       3.34048900       0.23440600
C       -3.03117400       3.34531700      -0.44304600
H       -1.82398300       3.21052900       1.31090900
C       -3.15435500       3.11503300      -1.81937400
C       -4.18145200       3.58768500       0.31659900
C       -4.41431100       3.10189800      -2.42201000
H       -2.26409700       2.91343300      -2.40737500
C       -5.44502300       3.57622000      -0.28370800
H       -4.08867800       3.76044600       1.38640400
C       -5.56414800       3.32648200      -1.65513300
H       -4.50178600       2.90864200      -3.48798500
H       -6.33264700       3.74946700       0.31885700
H       -6.54482300       3.30526500      -2.12271500
C       -0.95154200       4.69632700       0.00221400
C        0.20902500       4.88555200       0.86815000
H       -1.67514100       5.50160900       0.18352300
H       -0.66118800       4.75114400      -1.05465600
C        1.14803000       5.02935300       1.61692900
H        1.98688400       5.14806700       2.26691800
Cl      -0.43114600       1.27830900       2.39567500
Cl       1.88555800       2.00285800      -0.56992700
O       -0.46862000      -0.09512600      -0.76078700
O        1.27703600      -0.26262900       1.12595100
C        0.21760300      -2.29755900      -0.31267700
C        1.62857900      -1.92532100      -0.46416600
C        3.47090000      -0.64505000       0.40565400
C       -2.10849000      -1.65927200      -0.21688500
C       -2.48433200      -3.00443700       0.02206700
C       -0.13772500      -3.62118300      -0.07201700
C       -1.47103300      -3.96841200       0.09612300
C        2.50104800      -2.64728400      -1.27200000
C        3.85175500      -2.32722100      -1.28692100
C        4.36905000      -1.32318400      -0.45537100
H        0.64850200      -4.36298100      -0.00304500
H       -1.74016100      -5.00330800       0.27668100
H        2.10085500      -3.43341700      -1.90091800
H        4.52218800      -2.85375100      -1.95678100
C        5.80892500      -1.00003700      -0.48420600
C        3.87219400       0.25138800       1.42094200
N       -0.77055900      -1.36157400      -0.38184600
N        2.12565500      -0.92889400       0.32180600
C       -3.02559100      -0.59345200      -0.29349800
C       -3.89661400      -3.40319500       0.19941400
C       -4.23873800      -4.24295100       1.27451000
C       -4.89279700      -3.00212200      -0.70694000
C       -6.54577200      -4.25532300       0.54408900
C       -6.20787400      -3.43385700      -0.53704800
C       -5.55896900      -4.65731400       1.45006000
H       -3.47428000      -4.54808600       1.98347700
H       -5.81625300      -5.29143700       2.29357700
H       -7.57306200      -4.58250000       0.67830200
H       -6.96840900      -3.13055100      -1.25087500
H       -4.63402100      -2.37284300      -1.55140100
C        6.75604600      -2.03896800      -0.53984100
C        6.24983600       0.33515300      -0.51044800
C        8.54928700      -0.41583400      -0.62440800
C        7.61197900       0.62230600      -0.58618600
C        8.11835100      -1.74652700      -0.60008700
H        6.42392200      -3.07298900      -0.51286700
H        8.84208900      -2.55611900      -0.62593600
H        9.61054200      -0.18900900      -0.67589900
H        7.94148300       1.65682900      -0.61951600
H        5.52592400       1.14301500      -0.49471700
C       -3.85593900       0.28478600      -0.35696300
H       -4.58106200       1.07013900      -0.41695800
C        4.24945000       0.95677000       2.32831700
H        4.58258200       1.59857700       3.11574300
