69
Properties=species:S:1:pos:R:3 pbc="F F F"
Si      -0.35631700       1.28367100       0.99612700
O        0.49548300       1.93106000      -0.24644300
C        1.54929400       2.90125600      -0.34019400
C        2.74096700       2.29357800      -1.05000200
H        1.84809700       3.23418200       0.65688700
C        2.57527800       1.42615400      -2.13796500
C        4.03303300       2.66231700      -0.65804700
C        3.68934500       0.94392500      -2.82978900
H        1.57412700       1.12838800      -2.43552800
C        5.14876300       2.18495100      -1.35250500
H        4.16362100       3.32619000       0.19374100
C        4.97821900       1.32862800      -2.44428400
H        3.55273000       0.26819700      -3.67008200
H        6.14742400       2.47573300      -1.03754400
H        5.84346300       0.95054000      -2.98179200
C        1.01074600       4.11601900      -1.13710000
C       -0.10756000       4.77921500      -0.47180600
H        1.84036400       4.82035000      -1.27747300
H        0.70880200       3.76595300      -2.13273600
C       -1.03389600       5.30269300       0.10302600
H       -1.85096400       5.76463200       0.61242300
Cl       0.54440100       2.34093600       2.70283200
Cl      -2.31642100       1.80403000       1.60700800
O       -1.08865700       0.22945000      -0.46891200
O        0.18760900      -0.25370400       1.71226900
C       -1.53714700      -1.92508200       0.29080300
C       -0.08947600      -2.14723400       0.35210700
C        2.10745800      -1.30529500       0.89399600
C       -3.30855100      -0.50069900      -0.50286700
C       -4.26840500      -1.49469400      -0.18823100
C       -2.45701500      -2.93544000       0.55124900
C       -3.81027700      -2.70968000       0.34128400
C        0.48868700      -3.27011300      -0.23358300
C        1.87006800      -3.39611000      -0.28791400
C        2.71225000      -2.40398600       0.23286100
H       -2.09868200      -3.87991400       0.94270000
H       -4.53075900      -3.47992000       0.59238900
H       -0.15888800      -4.00420100      -0.69739100
H        2.31146200      -4.25284400      -0.78484800
C        4.17642100      -2.52223800       0.10538800
C        2.82445200      -0.30726800       1.58097500
N       -1.98546600      -0.72575500      -0.18840500
N        0.73320300      -1.22842000       0.92855400
C       -3.60294800       0.68553300      -1.21121000
C       -5.71066000      -1.27850100      -0.41512500
C       -6.33231200      -0.07641400      -0.03279100
C       -6.48865800      -2.30844600      -0.97493200
C       -8.47010800      -0.93265100      -0.78246400
C       -7.85870600      -2.13122100      -1.16548000
C       -7.70508500       0.08982000      -0.21043700
H       -5.74511400       0.71377600       0.42312600
H       -8.17848000       1.01632000       0.10167200
H       -9.53842300      -0.79703100      -0.92621900
H       -8.44718100      -2.92660400      -1.61374600
H       -6.01375800      -3.23646300      -1.28048900
C        4.79397700      -3.76818700       0.32201200
C        4.96003800      -1.42034300      -0.27936000
C        6.94833200      -2.80077300      -0.20711400
C        6.33662200      -1.56470100      -0.44157600
C        6.17403600      -3.90185300       0.17589300
H        4.19522200      -4.62157700       0.62818100
H        6.64457900      -4.86283900       0.36261900
H        8.02307700      -2.90762000      -0.32539000
H        6.92914000      -0.71074100      -0.75660900
H        4.49348400      -0.46396100      -0.48237500
C       -3.87041300       1.65431400      -1.88445300
H       -4.11089300       2.52422400      -2.45754400
C        3.45252700       0.54023000       2.17170600
H        4.00491300       1.29798600       2.68420800
