69
Properties=species:S:1:pos:R:3 pbc="F F F"
Si       0.06108800       0.93491200       1.44281400
O        0.64573300       2.14323300       0.48666400
C        0.40920900       2.52622300      -0.88028100
C       -0.88020300       3.30899000      -1.04098100
H        0.36809100       1.63965200      -1.51887100
C       -1.53428500       3.90439100       0.04208300
C       -1.41319900       3.45909200      -2.32910200
C       -2.71009400       4.63489100      -0.15910100
H       -1.13136700       3.79002300       1.04290000
C       -2.58051100       4.19723300      -2.53411000
H       -0.91537300       2.98801100      -3.17397800
C       -3.23534100       4.78685100      -1.44585600
H       -3.21387900       5.08615700       0.69155000
H       -2.98412300       4.30364600      -3.53748800
H       -4.14743300       5.35698900      -1.60039200
C        1.63165500       3.37245500      -1.31802300
C        2.85896100       2.58249000      -1.40254900
H        1.40374900       3.80912100      -2.29795400
H        1.75116700       4.20202200      -0.60987800
C        3.85260400       1.89681500      -1.48192500
H        4.73658500       1.29980100      -1.53799000
Cl      -1.86273200       0.82831400       2.33570500
Cl       0.95285400       1.81351500       3.24265200
O       -0.59600100       0.09168100      -0.14114900
O        0.99923000      -0.55642200       1.75222500
C       -0.54333000      -2.21700200       0.09591900
C        0.91886500      -2.13142300       0.00317300
C        2.98095700      -1.03303200       0.61562100
C       -2.62972300      -1.05345900      -0.23907600
C       -3.34200400      -2.27387700      -0.13246900
C       -1.22083700      -3.42950900       0.15723500
C       -2.60694800      -3.45037700       0.07421600
C        1.61408800      -2.92491400      -0.90378400
C        2.98315500      -2.76372200      -1.06743800
C        3.69564800      -1.81210100      -0.32673300
H       -0.65017300      -4.34044500       0.29082100
H       -3.13714500      -4.39102800       0.16988800
H        1.05918000      -3.63888400      -1.49983100
H        3.51462500      -3.37844300      -1.78534900
C        5.14130200      -1.62164300      -0.56300000
C        3.56372500      -0.04068400       1.42625900
N       -1.26271400      -1.06690500      -0.05512300
N        1.62278500      -1.23175100       0.74535100
C       -3.19884800       0.18379400      -0.60552100
C       -4.81209500      -2.32412600      -0.25067800
C       -5.62842900      -1.38504600       0.40493400
C       -5.41248700      -3.35617700      -0.99594100
C       -7.60608500      -2.49656700      -0.44327000
C       -6.80084700      -3.43486600      -1.09778700
C       -7.01657100      -1.47717500       0.31235600
H       -5.17699400      -0.60156100       1.00425400
H       -7.63825000      -0.75531300       0.83420600
H       -8.68791100      -2.56123900      -0.51933600
H       -7.25318000      -4.22584000      -1.68905500
H       -4.78937500      -4.08062800      -1.51311500
C        6.06433300      -1.55732500       0.49432100
C        5.60289500      -1.53203400      -1.88934900
C        7.87528300      -1.29377500      -1.09344700
C        6.96177800      -1.35808000      -2.15074800
C        7.42412600      -1.40181900       0.22644900
H        5.72160200      -1.64979500       1.51885800
H        8.13212800      -1.36685400       1.04943800
H        8.93430600      -1.16270600      -1.29702900
H        7.30541700      -1.27113500      -3.17743100
H        4.89201500      -1.57096700      -2.71007600
C       -3.62816100       1.25323900      -0.97380100
H       -3.98161300       2.21904500      -1.27055200
C        4.06806500       0.82394700       2.10406700
H        4.50852300       1.59309000       2.70144900
