69
Properties=species:S:1:pos:R:3 pbc="F F F"
Si       0.25944800       1.70926600      -0.68462200
O       -1.33816400       1.82070000      -0.34634000
C       -2.28288300       2.07797400       0.71134200
C       -2.10280100       1.12021200       1.87163600
H       -3.25010500       1.87344200       0.24077900
C       -0.92507100       1.10208700       2.63268900
C       -3.14295300       0.24524200       2.20543300
C       -0.78256400       0.20032600       3.68928700
H       -0.11867500       1.78934500       2.39909200
C       -3.00906500      -0.64717200       3.27256300
H       -4.05980000       0.26352700       1.62178900
C       -1.82362400      -0.67764600       4.01155600
H        0.13733900       0.18973200       4.26786200
H       -3.82479100      -1.31974700       3.52497000
H       -1.71310000      -1.37534400       4.83733000
C       -2.30245700       3.55130800       1.18088000
C       -2.53965200       4.49209700       0.09009300
H       -3.11119300       3.62754800       1.91981500
H       -1.36739400       3.79120800       1.69524100
C       -2.74657900       5.25054500      -0.82905800
H       -2.92045200       5.92866400      -1.63565300
Cl       0.98639500       2.32396100      -2.56224200
Cl       0.97024500       3.49875700       0.38589100
O        1.30524300       0.78504500       0.43192600
O       -0.08180500       0.04709600      -1.58921500
C        1.31303800      -1.54797500       0.08630400
C       -0.15192600      -1.59881100       0.05442000
C       -2.14866100      -0.96084200      -1.13102400
C        3.34886700      -0.25002000       0.05988100
C        4.12697000      -1.43147400      -0.00543400
C        2.06390500      -2.71766500       0.00744800
C        3.44969600      -2.65923700      -0.02678100
C       -0.88058900      -2.50365100       0.81713500
C       -2.24350700      -2.64109800       0.60376000
C       -2.90319500      -1.90530200      -0.39099300
H        1.54084700      -3.66469300      -0.04556400
H        4.02506600      -3.57696600      -0.07321400
H       -0.36478500      -3.09380500       1.56473000
H       -2.80961200      -3.35193200       1.19403600
C       -4.34883500      -2.10881200      -0.61404900
C       -2.68709400      -0.11398400      -2.12436100
N        1.97623600      -0.36058300       0.14005600
N       -0.80232100      -0.83578800      -0.87018500
C        3.87610800       1.05671000       0.02119000
C        5.60233200      -1.39824500      -0.05504000
C        6.27924400      -2.25003000      -0.94758300
C        6.34686100      -0.57149400       0.80451200
C        8.40675200      -1.43096800      -0.13565500
C        7.74038500      -0.59472400       0.76637900
C        7.67282800      -2.25768700      -0.99293000
H        5.71172100      -2.88671100      -1.62039300
H        8.18432800      -2.90652700      -1.69799300
H        9.49260800      -1.44045700      -0.16840900
H        8.30600100       0.03812300       1.44415600
H        5.83704700       0.06919700       1.51546800
C       -4.88827000      -2.22953700      -1.90671900
C       -5.20162700      -2.23294900       0.49884000
C       -7.09657800      -2.56376400      -0.96768700
C       -6.56752900      -2.44849500       0.32203400
C       -6.25242600      -2.46218000      -2.07867400
H       -4.23864900      -2.16559500      -2.77225400
H       -6.65607400      -2.56771700      -3.08159600
H       -8.16019400      -2.73629900      -1.10636200
H       -7.21690800      -2.52528600       1.18932400
H       -4.79416700      -2.13974500       1.50036100
C        4.32153000       2.17848600      -0.05617900
H        4.71551300       3.17036200      -0.11968300
C       -3.17590100       0.59772700      -2.97114600
H       -3.60770900       1.23189500      -3.71564300
