75
Properties=species:S:1:pos:R:3 pbc="F F F"
Si      -0.27169100       1.45806400       0.96895700
O        0.71192100       1.97314400      -0.23935700
C        1.78508800       2.92123200      -0.32784200
C        2.97237800       2.27972200      -1.01561700
H        2.07534400       3.26011600       0.66992100
C        2.80130100       1.38948700      -2.08458600
C        4.26718800       2.65144900      -0.63419600
C        3.91192900       0.88994800      -2.76933900
H        1.79837200       1.08965400      -2.37365400
C        5.37888500       2.15816400      -1.32384200
H        4.40306000       3.33210000       0.20340300
C        5.20256300       1.28013800      -2.39718800
H        3.77066800       0.19625300      -3.59407300
H        6.37927600       2.45209900      -1.01744300
H        6.06500000       0.88803400      -2.92889500
C        1.29307200       4.13800100      -1.15295000
C        0.17750100       4.84014800      -0.52480100
H        2.14317800       4.81894400      -1.28571600
H        1.00441200       3.77947700      -2.14952400
C       -0.74933400       5.39609500       0.01769200
H       -1.56724200       5.88400000       0.50072800
Cl       0.61462800       2.51419000       2.68256900
Cl      -2.22138700       2.10132600       1.49292000
O       -1.03139000       0.44726200      -0.53447500
O        0.13704600      -0.10332000       1.72708600
C       -1.56778300      -1.65850800       0.28556400
C       -0.11502200      -1.91383600       0.26300200
C        2.07652800      -1.15805700       0.96117000
C       -3.27974000      -0.18860100      -0.56536300
C       -4.27493400      -1.11767300      -0.17304600
C       -2.51996500      -2.59541400       0.69142000
C       -3.86631400      -2.28747500       0.46983900
C        0.45422200      -2.94743600      -0.49253100
C        1.84786300      -3.05333600      -0.50573500
C        2.68442800      -2.18136500       0.19354200
H       -4.62465500      -2.98418300       0.81225500
H        2.30243800      -3.82466800      -1.11918500
C        4.15056700      -2.33469400       0.11990500
C        2.78108200      -0.25826000       1.78453400
N       -1.97292700      -0.46532600      -0.25118700
N        0.70750700      -1.06624600       0.94223000
C       -3.53042400       0.97696700      -1.32358500
C       -5.71128900      -0.86474900      -0.41038300
C       -6.29115700       0.37712000      -0.09900200
C       -6.52401900      -1.90060600      -0.90416200
C       -8.46020800      -0.45344500      -0.78668000
C       -7.88941500      -1.69175800      -1.09916400
C       -7.65936000       0.57659800      -0.28128400
H       -5.67536200       1.17357100       0.30531500
H       -8.10109000       1.53525700      -0.02448000
H       -9.52462700      -0.29256300      -0.93355400
H       -8.50588400      -2.49368200      -1.49532300
H       -6.07889200      -2.86026500      -1.15209100
C        4.71679400      -3.62066300       0.19676900
C        4.98702700      -1.22332900      -0.07770800
C        6.92493700      -2.67599800      -0.09962300
C        6.36502900      -1.39777100      -0.19375400
C        6.09751100      -3.78747900       0.09681700
H        4.07590600      -4.48302800       0.35766000
H        6.52673000      -4.78233800       0.17367300
H        8.00034900      -2.80709500      -0.18264700
H        6.99877700      -0.53292100      -0.36653400
H        4.56163300      -0.23233400      -0.17513300
C       -3.76420300       1.92795100      -2.03376100
H       -3.97454600       2.78258800      -2.64051200
C        3.40213000       0.49081600       2.50201900
H        3.94677700       1.16608000       3.12611300
C       -0.37211600      -3.89056500      -1.32326000
H       -0.60464300      -4.79579800      -0.75079500
H       -1.31383500      -3.43830300      -1.64217100
H        0.19654800      -4.19207900      -2.20690300
C       -2.14371900      -3.87708200       1.38241800
H       -2.74809200      -3.98764100       2.28898500
H       -2.35973400      -4.73541600       0.73630100
H       -1.08808500      -3.90262600       1.66051000
