75
Properties=species:S:1:pos:R:3 pbc="F F F"
Si       0.09146800       1.47314000      -0.25651100
O       -1.49488100       1.20922200       0.03723100
C       -2.62989300       1.51912800       0.84492500
C       -3.46426500       2.64799800       0.26988500
H       -3.23542400       0.60533600       0.80855800
C       -2.92387700       3.66712200      -0.52032600
C       -4.83456000       2.66752300       0.56817400
C       -3.74227800       4.69459300      -1.00081000
H       -1.86813000       3.66339000      -0.76450200
C       -5.65206900       3.69524900       0.09386100
H       -5.26383500       1.86747400       1.16826100
C       -5.10582700       4.71451700      -0.69399900
H       -3.31079600       5.47970600      -1.61635500
H       -6.71274600       3.69587500       0.33109900
H       -5.73931500       5.51364000      -1.06977400
C       -2.30590200       1.76294700       2.34246300
C       -1.58090200       0.65419100       2.95581300
H       -3.27109400       1.89788000       2.84648900
H       -1.74495700       2.69477300       2.45523100
C       -0.98239500      -0.27514000       3.44692000
H       -0.44526800      -1.07811700       3.90096800
Cl       0.78076800       2.37694200      -2.03464000
Cl       0.38229300       3.26879600       0.98054300
O        1.26017500       0.64248700       0.81051100
O        0.06059100      -0.12422600      -1.33583000
C        1.79481000      -1.52979900       0.07011000
C        0.36269700      -1.87404000       0.15752600
C       -1.78217400      -1.49708400      -0.88212800
C        3.47616400       0.20085800       0.27205200
C        4.48475700      -0.72174400      -0.09581400
C        2.76120300      -2.44907900      -0.35786900
C        4.09021000      -2.01977900      -0.42147400
C       -0.15639300      -2.90585100       0.94301100
C       -1.51610200      -3.20071700       0.80391900
C       -2.34641400      -2.53691000      -0.10275500
H        4.84919200      -2.72897100      -0.73652000
H       -1.94925000      -3.96873700       1.43650400
C       -3.77204200      -2.91231000      -0.21265300
C       -2.46758900      -0.79282200      -1.89682500
N        2.18184900      -0.25056500       0.34958400
N       -0.46525300      -1.17904200      -0.67613900
C        3.70122800       1.56954000       0.52370500
C        5.90905600      -0.33490000      -0.16695100
C        6.67995300      -0.74042500      -1.27118900
C        6.52011700       0.38964600       0.87082400
C        8.63603100       0.30705100      -0.30513300
C        7.87760900       0.70161400       0.80229800
C        8.03382700      -0.41310700      -1.34211500
H        6.21095300      -1.29055200      -2.08203200
H        8.61630700      -0.71745100      -2.20695800
H        9.69161100       0.55839300      -0.35890400
H        8.34382400       1.25026300       1.61565200
H        5.93948300       0.68825100       1.73712600
C       -4.12907500      -4.27290200      -0.22552100
C       -4.78497600      -1.93849000      -0.25223400
C       -6.47215300      -3.67332100      -0.32360300
C       -6.12555200      -2.31822000      -0.30054000
C       -5.47067600      -4.64921000      -0.28848800
H       -3.35268100      -5.03264800      -0.20844400
H       -5.73329600      -5.70295600      -0.31270000
H       -7.51713000      -3.96729400      -0.36787500
H       -6.89889700      -1.55557100      -0.31727100
H       -4.52582300      -0.88618000      -0.22800400
C        3.89793200       2.74907300       0.70375700
H        4.06736600       3.79195300       0.86611400
C       -3.06443500      -0.24056400      -2.79213300
H       -3.59909200       0.26252000      -3.56921400
C        0.68087100      -3.65631400       1.94081400
H        0.88558100      -4.66978100       1.57744800
H        1.63193300      -3.15757300       2.13918100
H        0.12813000      -3.75181700       2.88090800
C        2.41817400      -3.85686700      -0.76294000
H        3.06100500      -4.16209600      -1.59347400
H        2.60178600      -4.54636100       0.06911900
H        1.37417000      -3.95619600      -1.06658200
