75
Properties=species:S:1:pos:R:3 pbc="F F F"
Si       0.04017900       1.09794100       1.45360600
O        0.71939600       2.27826700       0.52449500
C        0.54864000       2.67211800      -0.84988500
C       -0.72594400       3.46471400      -1.06696800
H        0.53600800       1.78871300      -1.49437300
C       -1.38954400       4.11011300      -0.01870300
C       -1.22523400       3.58608400      -2.37111400
C       -2.54241600       4.86097600      -0.27013100
H       -1.01051300       4.01998900       0.99405400
C       -2.36877000       4.34560500      -2.62660500
H       -0.71897200       3.07765700      -3.18895300
C       -3.03341500       4.98510000      -1.57335000
H       -3.05438300       5.35098600       0.55378900
H       -2.74629900       4.43020200      -3.64220900
H       -3.92697400       5.57237200      -1.76735900
C        1.79195200       3.51921000      -1.22170800
C        3.02397200       2.73296700      -1.24260100
H        1.61429100       3.95692100      -2.21162700
H        1.87280200       4.34837900      -0.50756900
C        4.02455500       2.05340500      -1.26878400
H        4.91049200       1.45690400      -1.27987000
Cl      -1.91165300       1.06730200       2.29124200
Cl       0.90400100       1.93615400       3.28959800
O       -0.61913500       0.30009300      -0.16545000
O        0.91063500      -0.43225100       1.77636800
C       -0.61493600      -2.00068700       0.12318500
C        0.84698300      -1.90572600      -0.05504400
C        2.91615100      -0.87966200       0.67474300
C       -2.67771000      -0.79765300      -0.24642900
C       -3.41181500      -1.99369100      -0.05180400
C       -1.30611500      -3.19582700       0.32858800
C       -2.70362200      -3.15561300       0.26168200
C        1.51651900      -2.58491400      -1.08095800
C        2.89840300      -2.40019700      -1.19171200
C        3.62592000      -1.57908100      -0.33102200
H       -3.26139100      -4.06594200       0.45629600
H        3.43053300      -2.92232800      -1.98050200
C        5.08608300      -1.42847100      -0.50483900
C        3.50438100       0.02814100       1.57612400
N       -1.31627800      -0.84291800      -0.07508500
N        1.55975900      -1.07420300       0.75951000
C       -3.22338300       0.43440600      -0.66398100
C       -4.88432800      -2.02531200      -0.16621100
C       -5.68446000      -1.03645200       0.43229400
C       -5.50094500      -3.08836500      -0.85070300
C       -7.68058500      -2.16242400      -0.35230000
C       -6.89078700      -3.15063000      -0.94942100
C       -7.07426800      -1.11053100       0.34294600
H       -5.21972900      -0.22616400       0.98385600
H       -7.68395300      -0.34853600       0.82011700
H       -8.76335000      -2.21323500      -0.42605800
H       -7.35596100      -3.96762900      -1.49358800
H       -4.88757800      -3.85105300      -1.32254600
C        5.96746000      -1.51478000       0.58581100
C        5.60507700      -1.22746600      -1.79680700
C        7.85175300      -1.17938700      -0.89898100
C        6.97995200      -1.09338300      -1.98950400
C        7.34273600      -1.39774200       0.38558900
H        5.57874400      -1.69151900       1.58263600
H        8.01694500      -1.47846000       1.23338300
H        8.92291000      -1.07886600      -1.04978700
H        7.36896900      -0.91937300      -2.98857200
H        4.92791300      -1.14832400      -2.64249700
C       -3.63819300       1.49456700      -1.07304000
H       -3.97478400       2.45403400      -1.40600200
C        4.02447200       0.81643900       2.33071800
H        4.47682300       1.51876500       2.99732700
C       -0.60252400      -4.48725600       0.64319500
H       -0.71130500      -5.19033700      -0.19017900
H        0.46075400      -4.34204300       0.84502400
H       -1.06673000      -4.94580900       1.52263300
C        0.80936700      -3.47814900      -2.06334600
H        1.27337300      -3.37508500      -3.04825600
H        0.90920600      -4.52618400      -1.75739800
H       -0.25407300      -3.24565700      -2.14438100
