75
Properties=species:S:1:pos:R:3 pbc="F F F"
Si       0.35658200       1.87528800      -0.36561100
O       -1.26805000       1.89226700      -0.08869000
C       -2.10017600       2.40406200       0.97960400
C       -2.50266800       1.22683600       1.85138100
H       -1.51968900       3.10941400       1.57975500
C       -1.52425000       0.67299500       2.69360600
C       -3.77684800       0.64933300       1.82718900
C       -1.80974300      -0.44209100       3.48046700
H       -0.53499800       1.12195700       2.72647600
C       -4.06540300      -0.47202800       2.61087900
H       -4.55613900       1.06098700       1.19583800
C       -3.08256400      -1.02386600       3.43530900
H       -1.04268300      -0.85712500       4.12878800
H       -5.05652700      -0.91498000       2.56914700
H       -3.30639600      -1.89565700       4.04431600
C       -3.27536500       3.15865500       0.33324100
C       -2.83884200       4.33015000      -0.42224600
H       -3.96642100       3.46153400       1.12990500
H       -3.82177300       2.47936600      -0.33198500
C       -2.45809500       5.29320700      -1.04620500
H       -2.12033300       6.14499400      -1.59488400
Cl       1.26671200       2.69531200      -2.07938500
Cl       0.92179200       3.54679600       0.95984400
O        1.31010600       0.82145400       0.72316200
O        0.07515200       0.35072100      -1.49504600
C        1.43664600      -1.40068200      -0.03646000
C       -0.03755900      -1.45133000      -0.02965500
C       -1.99747100      -0.70319600      -1.22206300
C        3.41651700      -0.03635600       0.24900600
C        4.23728100      -1.13858300      -0.08938500
C        2.21896300      -2.49442500      -0.42930500
C        3.60795500      -2.33616800      -0.43195500
C       -0.79015700      -2.36695200       0.70674700
C       -2.16272100      -2.42590900       0.45382100
C       -2.78960000      -1.64870000      -0.52414100
H        4.22579500      -3.18148900      -0.71725800
H       -2.76840400      -3.10457000       1.04289100
C       -4.23240300      -1.82870600      -0.78780000
C       -2.45840300       0.13073900      -2.26506600
N        2.05729000      -0.22747200       0.27668400
N       -0.66791500      -0.61295900      -0.90407500
C        3.89338000       1.26210600       0.52100100
C        5.71129800      -1.03719200      -0.11742500
C        6.41940100      -1.58935200      -1.20027000
C        6.42189400      -0.44029900       0.93798200
C        8.51338400      -0.93599000      -0.17805300
C        7.81542200      -0.39748500       0.90828200
C        7.81241900      -1.53023000      -1.23269000
H        5.87526300      -2.04159400      -2.02475100
H        8.34908300      -1.94463800      -2.08127600
H        9.59874200      -0.89383300      -0.20199900
H        8.35635400       0.05403100       1.73499100
H        5.88569600      -0.03110500       1.78732600
C       -4.77151900      -3.12917700      -0.77579300
C       -5.09442600      -0.73964700      -1.00303800
C       -6.98455900      -2.24213000      -1.18936700
C       -6.45950700      -0.94565400      -1.19533500
C       -6.13538600      -3.33389600      -0.98179700
H       -4.11560400      -3.98180100      -0.62503400
H       -6.53322400      -4.34467200      -0.98308900
H       -8.04798500      -2.40045800      -1.34544100
H       -7.11399900      -0.09185800      -1.34608400
H       -4.70250200       0.26916700      -0.99818400
C        4.30772400       2.38103200       0.71777900
H        4.67086900       3.37083500       0.89423500
C       -2.85415500       0.80255400      -3.18964700
H       -3.21267600       1.41023800      -3.99273200
C        1.62118100      -3.80596000      -0.85981500
H        1.61798700      -4.51355600      -0.02268400
H        0.59540300      -3.69350600      -1.21645200
H        2.23107800      -4.23833300      -1.65801100
C       -0.18321700      -3.24055900       1.76791400
H       -0.78500000      -3.16105800       2.67896600
H       -0.19705000      -4.28963700       1.45233600
H        0.84458300      -2.95567000       2.00181000
