75
Properties=species:S:1:pos:R:3 pbc="F F F"
Si       0.03954300       1.30495800       0.39099100
O       -1.03856300       2.39387200      -0.28022000
C       -1.86238400       3.43820100       0.22826200
C       -3.18480300       3.42759600      -0.51264200
H       -2.05865400       3.28299600       1.29385900
C       -3.23456200       3.25130200      -1.90166200
C       -4.37731900       3.59883700       0.19973900
C       -4.46325200       3.22312500      -2.56498700
H       -2.31082000       3.10312200      -2.45269300
C       -5.60985500       3.57218900      -0.46131300
H       -4.34043400       3.72830100       1.27893900
C       -5.65514300       3.37772900      -1.84608200
H       -4.49395100       3.07214700      -3.64087600
H       -6.53065900       3.68983200       0.10370700
H       -6.61132700       3.34509800      -2.36133600
C       -1.15748600       4.81289300       0.05908600
C       -0.04578300       5.00377100       0.98652200
H       -1.90544000       5.60003800       0.22036300
H       -0.81574600       4.89582900      -0.98046400
C        0.85116700       5.14313100       1.78600500
H        1.65382800       5.25842500       2.48075900
Cl      -0.67129600       1.35393400       2.39764900
Cl       1.75724900       2.23006700      -0.46472700
O       -0.49595200       0.04528800      -0.76968000
O        1.18823800      -0.06913100       1.20440800
C        0.22995300      -2.11095800      -0.20775900
C        1.61600500      -1.65963700      -0.43638200
C        3.40365200      -0.34661500       0.51026900
C       -2.11974600      -1.52811300      -0.20551400
C       -2.45437500      -2.85570900       0.15805500
C       -0.06626600      -3.41611800       0.20324300
C       -1.41112300      -3.75547000       0.37692600
C        2.48678600      -2.25253700      -1.35278900
C        3.82595100      -1.84824800      -1.32763300
C        4.31869800      -0.92618400      -0.40262900
H       -1.65589700      -4.76719900       0.68388500
H        4.51078300      -2.26754000      -2.05772800
C        5.75132800      -0.56379400      -0.40412300
C        3.76719200       0.51601900       1.56850300
N       -0.78988300      -1.21751300      -0.36183700
N        2.07969900      -0.68780200       0.40508600
C       -3.06438600      -0.50070600      -0.39641500
C       -3.85620100      -3.29233800       0.33400000
C       -4.20184300      -4.05607800       1.46324000
C       -4.83859000      -3.00249600      -0.62778300
C       -6.48309300      -4.21734100       0.67112700
C       -6.14203900      -3.46966300      -0.46113500
C       -5.51058300      -4.50762200       1.63349600
H       -3.44982200      -4.27491300       2.21625100
H       -5.77044100      -5.08298200       2.51742900
H       -7.50133300      -4.57287000       0.80215200
H       -6.89088100      -3.25130300      -1.21717900
H       -4.57728100      -2.43023300      -1.51108200
C        6.72249900      -1.57464500      -0.51549100
C        6.15930600       0.78010800      -0.34868700
C        8.47710400       0.09209300      -0.49513800
C        7.51492100       1.10333700      -0.40005600
C        8.07815400      -1.24739300      -0.55170100
H        6.41250000      -2.61529700      -0.55247200
H        8.82108800      -2.03677700      -0.62192600
H        9.53278100       0.34694000      -0.52754500
H        7.81986900       2.14553900      -0.37007600
H        5.41620900       1.56810200      -0.28855800
C       -3.91770000       0.34215600      -0.55833700
H       -4.66297600       1.09627900      -0.70541700
C        4.11462900       1.19680000       2.50614500
H        4.42101300       1.81591500       3.32199300
C        1.00103900      -4.44390100       0.46495400
H        1.15216500      -5.06641200      -0.42457800
H        1.95716100      -3.98633400       0.72812400
H        0.68343400      -5.09984500       1.28026100
C        2.02755700      -3.26271300      -2.36804800
H        2.37398300      -2.95713900      -3.36114500
H        2.47032800      -4.24193700      -2.15333300
H        0.94075800      -3.36426700      -2.39324700
