67
Properties=species:S:1:pos:R:3 pbc="F F F"
Si       0.19699400       1.38362700      -0.23356500
O       -1.37151300       1.14572500       0.21173000
C       -2.23281400       1.88207400       1.10777000
C       -2.86173900       3.08055800       0.43202100
H       -1.65692700       2.21414200       1.97555000
C       -3.19161800       3.06740000      -0.92802500
C       -3.16153500       4.21086500       1.20287300
C       -3.81258500       4.17595600      -1.51063500
H       -2.95396000       2.19762200      -1.53100600
C       -3.78777800       5.31670600       0.62295800
H       -2.89347900       4.22683600       2.25707600
C       -4.11457100       5.30148700      -0.73739300
H       -4.05951100       4.15955200      -2.56904900
H       -4.01020000       6.19157100       1.22829200
H       -4.59521000       6.16355200      -1.19246300
C       -3.31328300       0.88493400       1.59312200
C       -2.75880700      -0.19046700       2.41225700
H       -3.84116900       0.48253600       0.71957100
H       -4.04834800       1.45186300       2.17737400
C       -2.26684600      -1.05064400       3.10582800
H       -1.84592300      -1.81142000       3.72545300
Cl       0.80682400       2.15108100      -2.08560500
Cl       0.65087100       3.15892900       0.92847900
O        1.40571200       0.51765800       0.78647400
O        0.02679100      -0.28346900      -1.23057900
C        1.77674300      -1.74712000       0.22029100
C        0.34199100      -2.04755900       0.25266100
C       -1.80094100      -1.64307900      -0.72634900
C        3.56530100      -0.15135900       0.27774200
C        4.53196300      -1.15174000       0.05299700
C        2.71102300      -2.76071500      -0.01128700
C        4.06094700      -2.47072100      -0.09372100
C       -0.18694800      -3.13075400       0.95594700
C       -1.52688400      -3.45241400       0.82982900
C       -2.36925400      -2.73292600      -0.03796200
H        2.34959100      -3.77399600      -0.14079300
H        4.77467600      -3.26843500      -0.26467500
H        0.46759600      -3.70453200       1.60051300
H       -1.93621900      -4.29041100       1.38181500
N        2.23277600      -0.47696000       0.37612400
N       -0.48043300      -1.31951000      -0.54800600
C       -3.78802500      -3.10389900      -0.17606200
C       -4.40907600      -3.19776800      -1.43410600
C       -4.52734700      -3.39445000       0.98658500
C       -5.74921500      -3.57055300      -1.52440700
H       -3.84126100      -3.01091100      -2.33912300
C       -5.87115800      -3.74983000       0.88952700
H       -4.05637600      -3.30344500       1.96058900
C       -6.48423600      -3.83973000      -0.36507300
H       -6.21761100      -3.65451700      -2.50049700
H       -6.44034700      -3.95226100       1.79201800
H       -7.53072000      -4.12159800      -0.43897600
C        5.97294200      -0.85846400      -0.03091400
C        6.60401500      -0.00717700       0.89414500
C        6.73842000      -1.47900400      -1.03695600
C        7.97544000       0.22455100       0.80612100
H        6.03323300       0.44520800       1.69795700
C        8.10597300      -1.22931600      -1.12913900
H        6.25537400      -2.12930900      -1.76023200
C        8.72705400      -0.37854800      -0.20784100
H        8.45724900       0.87209700       1.53245500
H        8.68554100      -1.69557300      -1.92025800
H        9.79437800      -0.18927700      -0.27792600
C        3.88270200       1.23397900       0.38544500
C       -2.52351800      -0.81906700      -1.63869900
N        4.18265500       2.35397000       0.43725000
N       -3.14286000      -0.20132700      -2.40120800
