67
Properties=species:S:1:pos:R:3 pbc="F F F"
Si       0.50757000       1.55404600       0.80515400
O       -1.00799400       1.05015400       0.57258100
C       -2.27934800       1.73702700       0.28432300
C       -2.13416200       2.66714800      -0.89510200
H       -2.94052200       0.91188200       0.01325900
C       -1.63054800       3.96870000      -0.75641000
C       -2.45740100       2.18937700      -2.17230700
C       -1.44759200       4.77589200      -1.88115700
H       -1.37437200       4.36055600       0.22355200
C       -2.27761400       2.99626100      -3.29743900
H       -2.85330400       1.18368600      -2.28470800
C       -1.76922900       4.29110500      -3.15303600
H       -1.05624500       5.78256200      -1.76383900
H       -2.53299700       2.61474000      -4.28212000
H       -1.62720600       4.92120100      -4.02687700
C       -2.82431300       2.40301300       1.56191400
C       -2.93641900       1.48112300       2.68941000
H       -3.81026400       2.81337700       1.30916400
H       -2.19211100       3.25081200       1.84755400
C       -3.01153800       0.71433400       3.62101000
H       -3.08575200       0.04239800       4.44796300
Cl       1.51133400       2.08087600      -0.90279600
Cl       0.72784000       2.95462400       2.27826600
O        1.31930800       0.16010100       1.45508800
O       -0.33819500      -1.48621900      -2.22127300
C        1.33554500      -1.62224800      -0.10711300
C       -0.11320000      -1.77404200       0.06534700
C       -2.25403200      -1.87438200      -0.98714000
C        3.37524500      -0.54388300       0.60666600
C        4.16090600      -1.38037400      -0.20524900
C        2.09590600      -2.42221100      -0.96904400
C        3.47129500      -2.30605600      -1.01726200
C       -0.72004300      -1.97837200       1.30140000
C       -2.09083100      -2.14326800       1.40208400
C       -2.89064300      -2.09805800       0.24934600
H        1.57372400      -3.15608500      -1.56903200
H        4.04398700      -2.96337300      -1.66151500
H       -0.09255200      -2.01299700       2.18413900
H       -2.55301800      -2.32096400       2.36499500
N        2.00556800      -0.68988900       0.62012900
N       -0.87203500      -1.72004400      -1.09136800
C       -4.35524400      -2.25546200       0.35130600
C       -5.06586600      -3.09964100      -0.51975500
C       -5.04746500      -1.56496600       1.36350700
C       -6.44549800      -3.24824100      -0.38003800
H       -4.53755300      -3.65832900      -1.28563400
C       -6.42926400      -1.70473200       1.48719700
H       -4.50373600      -0.89840400       2.02697900
C       -7.13083100      -2.54778800       0.61841800
H       -6.98412800      -3.91374800      -1.04840800
H       -6.95804800      -1.15410200       2.26011700
H       -8.20661700      -2.66046600       0.72029700
C        5.63041000      -1.30345700      -0.23093200
C        6.37729200      -1.17071300       0.95406500
C        6.30106900      -1.40177900      -1.46544900
C        7.76919500      -1.12637400       0.90125200
H        5.87495700      -1.13629900       1.91516000
C        7.69210400      -1.34151500      -1.51201300
H        5.73175800      -1.49677600      -2.38540500
C        8.42860400      -1.20414100      -0.33001500
H        8.33825200      -1.03765900       1.82176500
H        8.20084800      -1.39941100      -2.46961100
H        9.51339100      -1.16308200      -0.36831400
C        3.89681700       0.52242900       1.39388400
C       -2.95127500      -1.69643000      -2.21632400
N        4.32920500       1.40537300       2.01179400
N       -3.54239500      -1.52281400      -3.20167700
