73
Properties=species:S:1:pos:R:3 pbc="F F F"
Si      -0.23664400       1.72933600       1.28092600
O        0.55850700       2.63173600       0.17152200
C        0.51289400       2.71139900      -1.28067800
C        1.46279900       1.70779000      -1.89426100
H       -0.50536800       2.52088300      -1.62544700
C        2.82539800       1.71634000      -1.55910000
C        0.99202800       0.77641800      -2.82678100
C        3.70426800       0.81338600      -2.15901700
H        3.19452800       2.42855700      -0.82695700
C        1.87048300      -0.12968700      -3.42797100
H       -0.06491400       0.76525500      -3.07946600
C        3.22849400      -0.10784000      -3.09868800
H        4.75707400       0.82533700      -1.89269600
H        1.49648500      -0.84691100      -4.15386900
H        3.91392600      -0.80260900      -3.57587100
C        0.89790400       4.16082400      -1.65095700
C       -0.06644800       5.14337100      -1.16156400
H        0.96747800       4.21519300      -2.74481300
H        1.89696800       4.37291200      -1.25078600
C       -0.88580300       5.93229900      -0.75088900
H       -1.60298800       6.63485000      -0.38633500
Cl       0.59361200       2.75317800       2.98720000
Cl      -2.23965400       1.97608900       1.89757000
O       -0.92307300       0.62611400      -0.27527400
O        0.48731600       0.19613200       1.87221500
C       -1.12309700      -1.55092700       0.48149900
C        0.34656000      -1.61352200       0.38012300
C        2.46387400      -0.65286100       0.98520300
C       -3.03882300      -0.33417800      -0.28851100
C       -3.89182800      -1.40256500       0.06140500
C       -1.93378500      -2.60676700       0.91492900
C       -3.31204800      -2.49675800       0.71454900
C        0.99479900      -2.55635700      -0.43845000
C        2.38680300      -2.54878300      -0.47225700
C        3.16240500      -1.63674300       0.25566200
H       -3.95361400      -3.31232700       1.03154300
H        2.89433400      -3.28945500      -1.08044000
N       -1.69881100      -0.41955500      -0.02276700
N        1.09522700      -0.69206500       1.03699200
C        4.63311000      -1.71442500       0.22996900
C        5.39749000      -1.51612500       1.39430300
C        5.28643200      -2.04093800      -0.97368800
C        6.78619800      -1.62587300       1.34796500
H        4.91018800      -1.30801100       2.34042800
C        6.67487500      -2.13593000      -1.01758800
H        4.70636000      -2.18624300      -1.87840300
C        7.42877800      -1.92679200       0.14273200
H        7.36502800      -1.48173500       2.25529700
H        7.16826500      -2.36819800      -1.95669900
H        8.51178300      -2.00299200       0.10843300
C       -5.34148800      -1.37041900      -0.20998400
C       -5.84084900      -0.97307200      -1.46280000
C       -6.23789600      -1.77954200       0.79475700
C       -7.21434500      -0.98281000      -1.70247900
H       -5.15820500      -0.68531600      -2.25547700
C       -7.61060000      -1.77307900       0.55363100
H       -5.85828700      -2.07445000       1.76877300
C       -8.10146200      -1.37641200      -0.69527200
H       -7.59076600      -0.68666100      -2.67717900
H       -8.29637600      -2.07339000       1.34038000
H       -9.17138100      -1.37558400      -0.88315200
C       -3.47268700       0.87174200      -0.91340600
C        3.10374700       0.43041800       1.65046800
N       -3.84501200       1.82586900      -1.45985200
N        3.67824000       1.30592200       2.15104000
C       -1.36449500      -3.82409900       1.58686400
H       -1.60597300      -4.72245200       1.00896500
H       -0.28317200      -3.76190400       1.72015700
H       -1.82955700      -3.93442200       2.57285600
C        0.22941700      -3.55179600      -1.26388900
H        0.82697000      -3.84445500      -2.13079600
H        0.02476700      -4.45494600      -0.67737500
H       -0.72595700      -3.14632400      -1.60570400
