73
Properties=species:S:1:pos:R:3 pbc="F F F"
Si       0.29966400       1.37013900       1.57773300
O        1.13984600       1.98988000       0.35040000
C        0.78754400       2.45880100      -1.00259700
C       -0.41368900       3.36877000      -0.98229700
H        0.57136700       1.56903800      -1.59697100
C       -0.42730000       4.52349200      -0.18715200
C       -1.52975300       3.05118700      -1.76382100
C       -1.55263300       5.34876300      -0.17220100
H        0.43368900       4.76793200       0.42972800
C       -2.65363500       3.88140100      -1.75499300
H       -1.52380800       2.14069500      -2.35596400
C       -2.66703100       5.02974000      -0.95780200
H       -1.56206000       6.23910100       0.45072900
H       -3.51949600       3.62246500      -2.35800600
H       -3.54311800       5.67265100      -0.94331900
C        2.04070300       3.16746200      -1.54765200
C        3.22684400       2.31572900      -1.60411900
H        2.24314800       4.04955700      -0.92749300
H        1.79164200       3.53115800      -2.55257400
C        4.21657300       1.62200900      -1.64289500
H        5.09580900       1.01704200      -1.67441300
Cl      -1.74219300       1.32204200       1.41053300
Cl       0.81105600       2.21128100       3.36783300
O       -0.84880400      -0.41041100      -1.86736600
O        0.82485300      -0.28287700       1.75465700
C       -0.76099500      -1.70600300       0.03389200
C        0.70474400      -1.66478800      -0.14442500
C        2.82448700      -0.85879600       0.67706400
C       -2.85582700      -1.09461700      -0.93550800
C       -3.54979800      -1.79381800       0.07114300
C       -1.40476100      -2.40320000       1.06067900
C       -2.79859900      -2.43423800       1.06432400
C        1.36820500      -2.40294900      -1.14497400
C        2.75652800      -2.36322200      -1.18726800
C        3.52492900      -1.61052400      -0.28316900
H       -3.31423700      -2.99714900       1.83395100
H        3.27330300      -2.96442400      -1.92740900
N       -1.46802700      -1.06100700      -0.95695500
N        1.45221700      -0.92858000       0.71433100
C        4.99636000      -1.62924900      -0.36050000
C        5.79402700      -1.70022500       0.79540600
C        5.61535300      -1.61150200      -1.62578000
C        7.18329800      -1.73591300       0.68623700
H        5.33292300      -1.75984800       1.77541700
C        7.00450700      -1.63232300      -1.72775100
H        5.00851800      -1.54716500      -2.52411100
C        7.79165300      -1.69405200      -0.57226900
H        7.78961800      -1.80233800       1.58456100
H        7.47202700      -1.59720600      -2.70721700
H        8.87464200      -1.71431300      -0.65318800
C       -5.02567400      -1.85799300       0.10006200
C       -5.77038400      -2.12600000      -1.06183500
C       -5.69851400      -1.68346000       1.32350200
C       -7.16114800      -2.21230300      -0.99989100
H       -5.26185100      -2.29279100      -2.00593200
C       -7.08975900      -1.75814200       1.37803600
H       -5.12997400      -1.46774800       2.22360700
C       -7.82420400      -2.02358300       0.21706700
H       -7.72585500      -2.43128900      -1.90153400
H       -7.60014800      -1.60643800       2.32484600
H       -8.90797800      -2.08527100       0.26126100
C       -3.48055900      -0.31633800      -1.95075700
C        3.44124700       0.02147900       1.60895400
N       -4.00759100       0.32712300      -2.76223800
N        3.95147000       0.74963500       2.35562200
C       -0.60744700      -3.12507400       2.11109500
H       -1.25419400      -3.79188000       2.68566700
H        0.19647800      -3.71569900       1.65752300
H       -0.14861700      -2.40719900       2.80085300
C        0.57835400      -3.23941600      -2.10603500
H        1.24401600      -3.86910900      -2.69957800
H       -0.13783900      -3.87304500      -1.57121600
H        0.01050500      -2.58470500      -2.77716500
