85
Properties=species:S:1:pos:R:3 pbc="F F F"
Si      -0.26026900       1.04373200       1.02962000
O        0.27084100       1.90590100      -0.26484700
C        1.25592200       2.91531600      -0.48245500
C        2.40562300       2.35568700      -1.29800900
H        1.63663600       3.28740400       0.47282800
C        2.24909200       1.23295000      -2.11994200
C        3.65065500       2.99371700      -1.24043800
C        3.33085800       0.74455100      -2.85822500
H        1.28610800       0.73460100      -2.16505400
C        4.73106900       2.50942600      -1.98104100
H        3.78065500       3.85773900      -0.59287300
C        4.57584400       1.37733900      -2.78839400
H        3.20245500      -0.13425200      -3.48388100
H        5.69664900       3.00355300      -1.91472700
H        5.41928600       0.98744100      -3.35140800
C        0.56988900       4.08243700      -1.23793300
C       -0.50352300       4.70066700      -0.46342800
H        1.33967700       4.82504500      -1.48151000
H        0.17809300       3.69372700      -2.18689500
C       -1.39175600       5.18225500       0.20125900
H       -2.17733100       5.60801400       0.78613100
Cl       0.92385200       2.03658300       2.60331300
Cl      -2.07805700       1.33811100       2.07004100
O       -1.17060000       0.12921500      -0.39086200
O        0.43190000      -0.52214000       1.53410200
C       -1.33423100      -2.11524100       0.13068000
C        0.12029300      -2.19102500      -0.07635400
C        2.33817100      -1.41580400       0.49804700
C       -3.32704300      -0.79938900      -0.21961300
C       -4.11390600      -1.94426100       0.05340500
C       -2.09302400      -3.23526500       0.42806500
C       -3.47938500      -3.13901300       0.41546400
C        0.65837800      -3.09492500      -0.98073300
C        2.03362900      -3.14527100      -1.17058300
C        2.89480500      -2.32301100      -0.43322900
H       -1.59067700      -4.17094800       0.64265400
H       -4.08365800      -4.01428600       0.62724500
H       -0.01312800      -3.74122600      -1.53295600
H        2.45484700      -3.85536900      -1.87368600
C        4.35833900      -2.45139100      -0.63433900
C        3.15648400      -0.54705400       1.36553700
N       -1.96277100      -0.92766800      -0.12647900
N        0.97213600      -1.37456400       0.61043800
C       -3.89860400       0.50492400      -0.61213800
C       -5.59197500      -1.93527800      -0.07099500
C       -6.37446500      -2.45835500       0.97132100
C       -6.22163800      -1.46405400      -1.23509600
C       -8.38615700      -2.02394800      -0.30289700
C       -7.60987800      -1.51620200      -1.35108800
C       -7.76558300      -2.49336200       0.85866300
H       -5.89309200      -2.81705100       1.87712200
H       -8.36210000      -2.88536900       1.67759800
H       -9.46854100      -2.05392100      -0.39220900
H       -8.08638200      -1.15841200      -2.25943800
H       -5.62348900      -1.06312300      -2.04655500
C       -4.91525800       1.07221300       0.17225800
C       -3.47692300       1.15617400      -1.78153500
C       -5.07300700       2.92924200      -1.36953800
C       -4.06989300       2.36016800      -2.16048700
C       -5.49123900       2.28391000      -0.20056600
H       -5.23991800       0.56904800       1.07634900
H       -6.26631300       2.72385400       0.42019000
H       -5.52607700       3.87254300      -1.66174900
H       -3.74306200       2.85615200      -3.06983200
H       -2.69308900       0.72074000      -2.39061900
C        3.09389700      -0.67845100       2.76148500
C        4.07473600       0.33438800       0.78048800
C        4.86146100       0.95916100       2.98103100
C        4.91209900       1.09826000       1.59098700
C        3.95582400       0.06549600       3.56343800
H        2.38419200      -1.36486300       3.21095500
H        3.91363300      -0.04457000       4.64305200
H        5.52408400       1.54654100       3.61073500
H        5.60644000       1.79581700       1.13269000
H        4.12926700       0.42246700      -0.29728900
C        5.24401100      -2.59948200       0.44654300
C        4.86443600      -2.47220900      -1.94448800
C        7.11022600      -2.75602100      -1.09058300
C        6.23417100      -2.61310500      -2.17060200
C        6.60958500      -2.75757400       0.21645700
H        4.86355300      -2.59480400       1.46202400
H        7.28418000      -2.87978500       1.05910100
H        8.17686800      -2.86654500      -1.26513200
H        6.61496300      -2.60812800      -3.18797300
H        4.18579200      -2.35379700      -2.78383900
