85
Properties=species:S:1:pos:R:3 pbc="F F F"
Si       0.09654400       0.78418500       1.23976000
O        0.59777500       1.85544000       0.09825500
C       -0.06507400       2.38809000      -1.06078200
C       -0.71417300       3.72320000      -0.74892900
H       -0.83302500       1.69455700      -1.41346200
C       -0.29293100       4.52551700       0.31772500
C       -1.74676800       4.17480400      -1.58186300
C       -0.90202900       5.76328100       0.54840100
H        0.49563500       4.17202100       0.97399300
C       -2.35297400       5.41183600      -1.35405800
H       -2.08714200       3.54814500      -2.40187400
C       -1.93108700       6.21092600      -0.28573800
H       -0.57279600       6.37662200       1.38338100
H       -3.15865700       5.74685500      -2.00242900
H       -2.40493600       7.17169400      -0.10193100
C        1.00586200       2.54322500      -2.16862300
C        1.51730800       1.26535600      -2.65914800
H        0.55581100       3.10297400      -2.99764300
H        1.82464600       3.15489000      -1.76823000
C        1.92260200       0.19970900      -3.06398200
H        2.28708300      -0.73329900      -3.43226100
Cl      -1.79040900       0.81118800       2.20357000
Cl       1.08203900       1.85608800       2.88495100
O       -0.62042000      -0.27630100      -0.19836900
O        1.10315700      -0.61384700       1.67096100
C       -0.59818600      -2.48713900       0.50211500
C        0.85010500      -2.46787700       0.25454400
C        2.94804600      -1.28279000       0.40377500
C       -2.67797600      -1.39453100      -0.04739400
C       -3.38592700      -2.54149900       0.37812200
C       -1.27890500      -3.61286200       0.93652000
C       -2.66923700      -3.62119700       0.91234400
C        1.43773100      -3.42355400      -0.56326400
C        2.77767000      -3.30752600      -0.90837300
C        3.55063700      -2.22958700      -0.45341700
H       -0.71242800      -4.47388600       1.27087200
H       -3.20961900      -4.49934300       1.24875600
H        0.82305900      -4.22943900      -0.94593000
H        3.23662500      -4.05720900      -1.54364300
C        4.96472300      -2.11590900      -0.88161200
C        3.65745900      -0.09892200       0.93561200
N       -1.31603700      -1.39114700       0.09842400
N        1.63206800      -1.45823800       0.73180200
C       -3.31471900      -0.22427900      -0.68550800
C       -4.86013400      -2.64289400       0.25774200
C       -5.61169700      -3.05111400       1.37197100
C       -5.51552500      -2.38237300      -0.95744200
C       -7.64484300      -2.91873600       0.06534900
C       -6.89885600      -2.52777000      -1.05236000
C       -6.99855100      -3.17905600       1.27754900
H       -5.11022900      -3.24460300       2.31627400
H       -7.57193700      -3.47895600       2.15013000
H       -8.72403300      -3.02003500      -0.00890000
H       -7.39517900      -2.33295700      -1.99884100
H       -4.94207500      -2.07128300      -1.82415300
C       -4.36567500       0.44854900      -0.04749300
C       -2.92586300       0.15387300      -1.98049600
C       -4.63337100       1.86793500      -1.98899400
C       -3.59346800       1.18990100      -2.63241300
C       -5.01273700       1.49956700      -0.69448200
H       -4.66730500       0.15273800       0.95099700
H       -5.81575400       2.02806300      -0.18937900
H       -5.14369600       2.68366100      -2.49314500
H       -3.29684400       1.46984900      -3.63910000
H       -2.11496600      -0.37014600      -2.47630100
C        3.98909100      -0.00435800       2.29310000
C        4.06193300       0.89417300       0.03391600
C        5.14180300       2.07679300       1.84839300
C        4.79300000       1.98789200       0.49719600
C        4.74145600       1.07921800       2.74315600
H        3.66910100      -0.77617800       2.98559400
H        5.00642500       1.14944000       3.79401200
H        5.72116300       2.92396000       2.20490700
H        5.09410500       2.76556400      -0.19884700
H        3.79184400       0.81054900      -1.01372100
C        5.99970200      -1.84975900       0.03129100
C        5.28168100      -2.32034400      -2.23616200
C        7.62788400      -1.97151100      -1.75870200
C        6.60434200      -2.23933800      -2.67276100
C        7.32175000      -1.78545200      -0.40604400
H        5.77154800      -1.70166000       1.08043700
H        8.11386600      -1.58844300       0.31070400
H        8.65821500      -1.90926300      -2.09772300
H        6.83323000      -2.38233700      -3.72496500
H        4.48815800      -2.52228700      -2.95010500
