85
Properties=species:S:1:pos:R:3 pbc="F F F"
Si       0.29351000       1.09606600      -0.06164300
O       -1.23298400       1.22329800       0.55899700
C       -1.82229900       2.24186200       1.38601600
C       -2.27453800       3.43024900       0.56469200
H       -1.10228000       2.56852300       2.14053000
C       -2.73402800       3.26659500      -0.74735900
C       -2.28269700       4.70522400       1.14236600
C       -3.19301900       4.36764500      -1.47436100
H       -2.72988200       2.28114700      -1.19949600
C       -2.74547800       5.80709500       0.41798200
H       -1.91411100       4.83598100       2.15756100
C       -3.20143700       5.64057700      -0.89438600
H       -3.54376500       4.22924500      -2.49400100
H       -2.74041400       6.79433800       0.87283500
H       -3.55490100       6.49773200      -1.46166400
C       -3.03198500       1.60703400       2.11588200
C       -2.68482500       0.41391700       2.88305300
H       -3.44817600       2.37411300       2.78070700
H       -3.80293200       1.37287200       1.37503300
C       -2.37568500      -0.57683500       3.50455400
H       -2.11073800      -1.44687200       4.06362500
Cl       0.88882000       1.66196200      -2.01632300
Cl       1.18293000       2.88644300       0.86351100
O        1.36827400       0.10268200       0.96634600
O       -0.24634700      -0.48246700      -0.94112300
C        1.40322000      -2.15390100       0.32559300
C       -0.04850400      -2.25350000       0.53381900
C       -2.22196700      -1.60507500      -0.29577000
C        3.40436400      -0.80396600       0.26598900
C        4.15322800      -1.92457300      -0.15513900
C        2.13278900      -3.26645500      -0.07152500
C        3.49434300      -3.15046600      -0.31756300
C       -0.61167800      -3.24717500       1.31788100
C       -1.98762100      -3.43331600       1.28891000
C       -2.80109300      -2.65897300       0.45459400
H        1.61503800      -4.20895900      -0.20274100
H        4.06299400      -4.02172000      -0.62395200
H        0.03495800      -3.87975600       1.91407700
H       -2.43779300      -4.22751700       1.87418600
C       -4.23969700      -3.00519800       0.35638500
C       -3.00874200      -0.70600700      -1.16484500
N        2.06195600      -0.96813900       0.48066700
N       -0.86357900      -1.43850100      -0.20150100
C        4.00211400       0.52935400       0.48400900
C        5.61088400      -1.84392400      -0.41217300
C        6.12450000      -2.39811200      -1.59697900
C        6.49357300      -1.26820100       0.51713500
C        8.36785300      -1.78356800      -0.92849600
C        7.86364500      -1.24564000       0.26089300
C        7.49522500      -2.35938700      -1.85687000
H        5.44619800      -2.83682600      -2.32378900
H        7.87915100      -2.77591200      -2.78376700
H        9.43513800      -1.75463800      -1.12963200
H        8.53821800      -0.80654000       0.99037900
H        6.10885100      -0.84666400       1.43918800
C        4.59125900       1.19387100      -0.59966000
C        4.06240900       1.08187200       1.77045800
C        5.30297900       2.96295100       0.88932200
C        4.72398100       2.29170100       1.97123300
C        5.22780400       2.41770300      -0.39604100
H        4.54877500       0.75374800      -1.59074300
H        5.67076500       2.93984300      -1.23901700
H        5.81027900       3.91056500       1.04740000
H        4.77960400       2.71439600       2.97010600
H        3.60375500       0.56185600       2.60514700
C       -2.62909400      -0.43723100      -2.49024500
C       -4.20747600      -0.16403000      -0.67113700
C       -4.62079700       0.90820500      -2.79708800
C       -5.00162200       0.64551500      -1.47756400
C       -3.43659800       0.36164400      -3.30018500
H       -1.71399500      -0.85695600      -2.88945200
H       -3.13573300       0.55895700      -4.32486700
H       -5.24075500       1.53911900      -3.42761000
H       -5.91502900       1.07281300      -1.07497200
H       -4.51541000      -0.38183800       0.34441200
C       -4.84264500      -3.23123200      -0.89195500
C       -4.99828400      -3.16005200       1.52732000
C       -6.94052900      -3.74246800       0.20406700
C       -6.34558600      -3.51809000       1.44925400
C       -6.18336300      -3.60476500      -0.96536900
H       -4.25960400      -3.11417500      -1.79971700
H       -6.63842700      -3.78596900      -1.93501400
H       -7.98826800      -4.02366800       0.14420400
H       -6.92913100      -3.61883300       2.36003500
H       -4.53872500      -2.97307100       2.49369700
