85
Properties=species:S:1:pos:R:3 pbc="F F F"
Si       0.02713100       0.85622800       0.13455600
O       -1.03525400       2.07963400      -0.27963800
C       -1.55343600       3.19132900       0.44395700
C       -2.73617700       3.76204100      -0.31115200
H       -1.88803500       2.86609200       1.43507100
C       -2.71058100       3.89304600      -1.70506900
C       -3.85915900       4.20139100       0.39775500
C       -3.80057700       4.44596600      -2.38067000
H       -1.84484000       3.53917400      -2.25692500
C       -4.94871700       4.76226600      -0.27493700
H       -3.88510700       4.08978300       1.47950700
C       -4.92270500       4.88303900      -1.66754200
H       -3.77648500       4.53423700      -3.46399600
H       -5.81950500       5.09270500       0.28557600
H       -5.77173100       5.31097100      -2.19440800
C       -0.46326700       4.28602200       0.63157400
C        0.66855300       3.81259300       1.42157800
H       -0.93262600       5.15088600       1.11688700
H       -0.12324600       4.60739100      -0.36104800
C        1.58894800       3.34433900       2.05283700
H        2.41635800       2.92577700       2.58418000
Cl      -0.81256500       0.53571500       2.12124800
Cl       1.58389800       1.66577000      -1.16363600
O       -0.62913300      -0.33407500      -0.99974800
O        1.24334000      -0.39767400       0.84006100
C        0.09591100      -2.48067200      -0.45914200
C        1.48665300      -2.07895400      -0.74453500
C        3.39759400      -0.79332000      -0.01463800
C       -2.24178400      -1.87343500      -0.28824500
C       -2.55694100      -3.19953600       0.08845600
C       -0.20424800      -3.78360400      -0.09029500
C       -1.52063600      -4.13691100       0.18398600
C        2.27627700      -2.77528600      -1.64553500
C        3.62944200      -2.47144900      -1.74783000
C        4.21838500      -1.51266000      -0.91367400
H        0.60147100      -4.50394100      -0.01552800
H       -1.75739500      -5.15982300       0.45603400
H        1.82552700      -3.55798700      -2.24365600
H        4.25463300      -3.02159200      -2.44247500
C        5.68385400      -1.29988900      -0.98260500
C        3.91247500       0.22833000       0.92139300
N       -0.92981600      -1.58267500      -0.54949900
N        2.06062400      -1.08225400      -0.00191300
C       -3.24516900      -0.79526000      -0.39653000
C       -3.94996400      -3.62715400       0.35717500
C       -4.22586800      -4.38216200       1.50928200
C       -4.99198300      -3.33094000      -0.53783200
C       -6.55802400      -4.51994900       0.87645600
C       -6.28550900      -3.78181500      -0.28099800
C       -5.52573800      -4.81827200       1.77104100
H       -3.42637600      -4.60515700       2.21068400
H       -5.73093300      -5.38727900       2.67336500
H       -7.56950700      -4.86096400       1.07900100
H       -7.08188300      -3.55547100      -0.98430400
H       -4.78717500      -2.75467200      -1.43366700
C       -4.03344700      -0.49516300       0.72466900
C       -3.46036800      -0.11982800      -1.60692800
C       -5.24231600       1.14889300      -0.57426200
C       -4.46506600       0.84142500      -1.69441900
C       -5.01926400       0.48541600       0.63603900
H       -3.86647900      -1.02250800       1.65781200
H       -5.61363000       0.72948700       1.51170600
H       -6.00747600       1.91553900      -0.64162300
H       -4.63064100       1.36278700      -2.63148600
H       -2.84923400      -0.35083900      -2.47241700
C        3.71809600       0.08663100       2.30368700
C        4.67110500       1.29988500       0.42816900
C        5.04722500       2.07325900       2.68992700
C        5.22630300       2.22415600       1.31046200
C        4.29406100       1.00303900       3.18411400
H        3.13071300      -0.74132700       2.68606800
H        4.15119700       0.88223900       4.25398800
H        5.48948000       2.78923300       3.37701400
H        5.80177700       3.05910100       0.92198600
H        4.81742000       1.40832500      -0.64065500
C        6.48151300      -1.33600300       0.17339400
C        6.29163000      -1.10516200      -2.23366900
C        8.46203800      -0.96657700      -1.17091500
C        7.67356000      -0.93004800      -2.32501000
C        7.86306600      -1.17724100       0.07630600
H        6.01946100      -1.49413100       1.14216100
H        8.47228300      -1.21658500       0.97487200
H        9.53788400      -0.83277900      -1.24224700
H        8.13202300      -0.76305300      -3.29557600
H        5.67784800      -1.06728800      -3.12955700
