69
Properties=species:S:1:pos:R:3 pbc="F F F"
Si       0.16338900      -0.73977300       0.83867400
O        1.60207600      -1.48129300       0.41543000
C        2.05929400      -2.82445600       0.26240900
C        3.02852400      -2.88429500      -0.90280600
H        1.21694200      -3.49259900       0.05703800
C        4.05551300      -1.93921200      -1.03609600
C        2.93183600      -3.92403700      -1.83440300
C        4.96899800      -2.03291900      -2.08843400
H        4.12895500      -1.12575700      -0.31948000
C        3.84728000      -4.02256600      -2.88755900
H        2.13393400      -4.65690100      -1.73575700
C        4.86831200      -3.07649700      -3.01645200
H        5.76075600      -1.29410600      -2.18477100
H        3.75979700      -4.83275300      -3.60696800
H        5.57956700      -3.14876300      -3.83517700
C        2.76095600      -3.30417600       1.56296900
C        1.84155300      -3.52446500       2.67583600
H        3.28839300      -4.23970000       1.33597400
H        3.52158600      -2.56068700       1.83332500
C        1.06470000      -3.72658000       3.58057900
H        0.37649700      -3.88913700       4.38075100
Cl       0.78784600       0.01329100       2.71362400
Cl      -1.13496200      -2.41042200       0.55315800
O        0.40331200       0.37553800      -0.53823500
O       -1.43024100       0.32455300       1.24275500
C       -0.91457900       2.33577100      -0.51042200
C       -2.12746800       1.52660100      -0.64486200
C       -3.48570800      -0.18859300       0.28709600
C        1.44164000       2.40005300      -0.15474200
C        1.46283000       3.79333100      -0.10166400
C       -0.93479400       3.72623200      -0.49329500
C        0.23958400       4.44992900      -0.29459600
C       -3.11399300       1.78242600      -1.58745800
C       -4.28992800       1.03379500      -1.59691000
C       -4.50263700       0.02848300      -0.64541500
H       -1.88838800       4.22981100      -0.60192500
H        0.19096900       5.53168700      -0.27495400
H       -2.94378400       2.56567100      -2.31706800
H       -5.03995100       1.24543500      -2.34901300
C       -5.76304600      -0.83181400      -0.56779900
H       -3.53837500      -0.92083900       1.07926000
N        0.29492500       1.72455100      -0.36169100
N       -2.34509000       0.53020900       0.26962400
H        2.32056200       1.77751500      -0.05814300
C        2.79738400       4.49540500       0.14311000
C        3.75948000       4.15465600      -1.02055500
C        2.63128100       6.02204200       0.22137800
C        3.39466700       3.98670300       1.47702700
H        3.35249300       4.50681100      -1.97505800
H        4.71979400       4.65085900      -0.84312300
H        3.93864200       3.07632400      -1.09227200
H        3.61229100       6.47134600       0.40444700
H        2.23850200       6.43151300      -0.71642000
H        1.96381000       6.30947500       1.04174500
H        3.58071000       2.90741300       1.45211000
H        4.34991000       4.49282800       1.65345600
H        2.72035800       4.20611000       2.31220100
C       -5.36566300      -2.31599100      -0.75561600
C       -6.41580500      -0.64497500       0.82242900
C       -6.78249200      -0.44721800      -1.65298400
H       -4.67304200      -2.64830200       0.02498000
H       -6.26796900      -2.93473400      -0.69985900
H       -4.89286800      -2.47018800      -1.73189900
H       -6.37058500      -0.59323100      -2.65818600
H       -7.66450100      -1.08680000      -1.54884700
H       -7.10175400       0.59632200      -1.54958400
H       -5.73790800      -0.94642700       1.62814500
H       -6.70463400       0.40034000       0.97888600
H       -7.31353200      -1.27001300       0.87974600
