69
Properties=species:S:1:pos:R:3 pbc="F F F"
Si      -0.10259900      -1.26109600       0.43000300
O        1.42131600      -1.87231600       0.10605900
C        2.71168200      -1.27621300       0.06602800
C        3.71098400      -2.28590800      -0.46092300
H        2.69629700      -0.41935900      -0.61657100
C        3.71822100      -3.60510800       0.01169100
C        4.67737900      -1.88162500      -1.38846400
C        4.68106600      -4.50849500      -0.44396800
H        2.96164800      -3.92138900       0.72412600
C        5.64566500      -2.78331400      -1.84156800
H        4.66835300      -0.85868100      -1.75922600
C        5.64840900      -4.09927200      -1.36958900
H        4.67731700      -5.53189100      -0.07773800
H        6.39005000      -2.46078900      -2.56489800
H        6.39661300      -4.80385500      -1.72314800
C        3.15397400      -0.79956500       1.48048600
C        2.27464800       0.21922400       2.04190400
H        4.17769500      -0.41263900       1.40568300
H        3.17565400      -1.67455000       2.14129600
C        1.51171100       1.05033500       2.48084700
H        0.84537500       1.78172000       2.88261000
Cl      -1.27512900      -2.43499500      -0.87995100
Cl      -0.22314800      -2.25856500       2.36116600
O       -1.41064400      -0.16705700       1.14505900
O        0.25045400       0.16503100      -0.75282500
C       -2.26929200       1.37456600      -0.42278100
C       -1.01681700       2.12470700      -0.34846100
C        1.35762600       2.15612800      -0.40807600
C       -3.56206800      -0.46658400       0.35648100
C       -4.68137900      -0.07666800      -0.37834800
C       -3.36165800       1.80256400      -1.17072400
C       -4.55491900       1.08470400      -1.15298400
C       -1.00967100       3.50972200      -0.18085500
C        0.18744700       4.20831300      -0.11683000
C        1.41259900       3.53202100      -0.22401500
H       -3.25718100       2.69535900      -1.77590800
H       -5.38619400       1.43668400      -1.75127700
H       -1.96080400       4.01860000      -0.07890200
H        0.17058300       5.28218300       0.02875500
C        2.74196800       4.27199600      -0.10482100
H        2.22962400       1.53707100      -0.53342300
N       -2.41731500       0.24472300       0.32389200
N        0.18214700       1.48569100      -0.46683900
H       -3.53039200      -1.33458800       0.99941800
C       -5.94674200      -0.92903700      -0.29754400
C       -6.39854500      -1.02661300       1.17903900
C       -7.09275600      -0.32785500      -1.12834700
C       -5.62481700      -2.34458800      -0.83565900
H       -6.61857700      -0.03259900       1.58445400
H       -7.30694600      -1.63627600       1.23059900
H       -5.63528300      -1.50078300       1.80519100
H       -7.97102000      -0.97357500      -1.03131800
H       -7.36254600       0.67322100      -0.77231300
H       -6.82929000      -0.26750700      -2.19052300
H       -4.83660300      -2.82856000      -0.24916700
H       -6.52811300      -2.96110600      -0.77274600
H       -5.30317700      -2.29787200      -1.88207100
C        2.82056700       4.87887500       1.31754900
C        3.95039100       3.34358700      -0.31518600
C        2.78729300       5.40395900      -1.15632000
H        2.80179500       4.08829700       2.07580900
H        3.75896300       5.43582100       1.41441400
H        1.98911200       5.56700900       1.50445700
H        1.97180100       6.12094300      -1.01330500
H        3.73593800       5.94229600      -1.05612000
H        2.72168800       4.99417000      -2.17043400
H        3.98100600       2.55042900       0.44085700
H        3.93548700       2.88732700      -1.31198900
H        4.86758000       3.93345600      -0.22438300
