69
Properties=species:S:1:pos:R:3 pbc="F F F"
Si      -0.38833600       1.24761900       0.87202800
O        0.60890800       1.79921300      -0.30843600
C        1.74520800       2.68012400      -0.32769600
C        2.96912200       1.92643200      -0.80119200
H        1.92721300       3.08524800       0.67042600
C        2.89168100       1.02248400      -1.87007200
C        4.21198100       2.18861900      -0.21295200
C        4.04551200       0.39800600      -2.34766200
H        1.92668400       0.80985900      -2.32108200
C        5.36847200       1.56591700      -0.69287200
H        4.27238500       2.88313500       0.62189400
C        5.28733000       0.67121600      -1.76346200
H        3.97753700      -0.29957900      -3.17836700
H        6.32775400       1.77265600      -0.22610300
H        6.18342600       0.18067600      -2.13373000
C        1.42209600       3.84946600      -1.29057100
C        0.30199100       4.66670100      -0.83116700
H        2.32527900       4.46573000      -1.38294900
H        1.21037300       3.43166000      -2.28312100
C       -0.62636400       5.32440000      -0.42092900
H       -1.44589100       5.90630700      -0.05994200
Cl       0.61509700       2.09799300       2.65031700
Cl      -2.26134200       2.09555400       1.39351000
O       -1.20223700       0.35080800      -0.61027400
O       -0.10168300      -0.36190800       1.58351400
C       -1.81250300      -1.83941300      -0.03754800
C       -0.38845900      -2.15878700       0.08034300
C        1.76977800      -1.53371000       0.89530100
C       -3.45227500      -0.20469600      -0.58302000
C       -4.49758200      -1.12125300      -0.45028700
C       -2.81842300      -2.78885500       0.09049500
C       -4.15227600      -2.43402600      -0.10583400
C        0.18760400      -3.26947600      -0.53359600
C        1.55211200      -3.50478400      -0.42279600
C        2.38551500      -2.62114500       0.28454000
H       -2.54584000      -3.80284000       0.36020700
H       -4.91895200      -3.18963000       0.01275800
H       -0.44892400      -3.92462500      -1.11613400
H        1.97674900      -4.37758400      -0.90571300
C        3.88458400      -2.87415100       0.41671900
H        2.27945300      -0.79545400       1.49777400
N       -2.16884900      -0.56114000      -0.37756300
N        0.43315700      -1.34766500       0.79970700
H       -3.58873200       0.82956600      -0.86236800
C       -5.92704400      -0.63356700      -0.68104100
C       -6.03989800      -0.05919900      -2.11345700
C       -6.95103200      -1.76899000      -0.51838600
C       -6.24229400       0.47817700       0.34902900
H       -5.81439700      -0.82976600      -2.85915900
H       -7.06360500       0.29591600      -2.27347100
H       -5.35900600       0.78526400      -2.26448100
H       -7.95311400      -1.36517100      -0.69396600
H       -6.77503400      -2.57368900      -1.24161800
H       -6.92431600      -2.18933500       0.49343300
H       -5.55951500       1.32838700       0.24472600
H       -7.26458500       0.83557900       0.18353900
H       -6.16582600       0.09165100       1.37145300
C        4.49276600      -3.08172700      -0.98959500
C        4.61068500      -1.70695600       1.10688900
C        4.07582300      -4.16228100       1.25376600
H        4.35415800      -2.18840200      -1.60509200
H        5.56636800      -3.27029300      -0.88246300
H        4.04721800      -3.94159700      -1.50044900
H        3.59423900      -5.02159400       0.77470100
H        5.14785800      -4.37105000       1.34113100
H        3.65844600      -4.04032500       2.25953800
H        4.47200400      -0.76984400       0.55765700
H        4.26680100      -1.57360200       2.13946900
H        5.68196200      -1.92863300       1.13695100
