69
Properties=species:S:1:pos:R:3 pbc="F F F"
Si      -0.11341100       0.81514500       1.16149200
O        0.53235300       1.92872000       0.13516000
C        0.02204700       2.46568100      -1.10806300
C       -1.05511900       3.49571000      -0.84603600
H       -0.38734200       1.66295200      -1.72699100
C       -0.93260900       4.42285900       0.19741700
C       -2.17492000       3.54634600      -1.68446100
C       -1.92179800       5.38816900       0.39794100
H       -0.07330400       4.37269200       0.85960900
C       -3.16284700       4.51587200      -1.48858800
H       -2.27395400       2.82085200      -2.48921300
C       -3.03734600       5.43904400      -0.44584100
H       -1.82388700       6.09981000       1.21362900
H       -4.03079600       4.54477600      -2.14224800
H       -3.80698700       6.18977300      -0.28688200
C        1.22824800       3.08406800      -1.85182200
C        2.17142700       2.07498800      -2.33016600
H        0.83921500       3.65567900      -2.70368600
H        1.72368000       3.79622200      -1.17997700
C        2.91351000       1.21375900      -2.74399600
H        3.57909200       0.46803000      -3.11825000
Cl      -2.10433400       0.81405500       1.88140900
Cl       0.69872800       1.80477500       2.95296500
O       -0.66709000      -0.17858600      -0.37827000
O        0.84671700      -0.62027000       1.61569400
C       -0.26477300      -2.46671200      -0.13773300
C        1.16826300      -2.16362400      -0.14533600
C        2.95751000      -0.82650300       0.69701400
C       -2.48194000      -1.61935700      -0.31437200
C       -3.03841100      -2.89950300      -0.27020700
C       -0.77259900      -3.75852000      -0.10413500
C       -2.14871000      -3.97643300      -0.16368400
C        2.07600200      -2.82160800      -0.96739800
C        3.42412800      -2.47047000      -0.95917800
C        3.89687200      -1.44521900      -0.12703200
H       -0.08000700      -4.58748700      -0.01453900
H       -2.51989500      -4.99305400      -0.12615900
H        1.70382000      -3.59212500      -1.63215000
H        4.10275200      -2.99561700      -1.62003900
C        5.36150100      -1.01799300      -0.03406000
H        3.19242700      -0.04671000       1.40857900
N       -1.14956800      -1.42756600      -0.24581900
N        1.66056700      -1.19179700       0.67548000
H       -3.05834600      -0.71182700      -0.41911900
C       -4.55807700      -3.03714300      -0.35165800
C       -5.03947200      -2.44364300      -1.69774300
C       -5.00246800      -4.50647900      -0.26830800
C       -5.19931300      -2.25165500       0.81762000
H       -4.59262500      -2.98306200      -2.54045800
H       -6.12915800      -2.53848400      -1.75768600
H       -4.78311300      -1.38216900      -1.78341100
H       -6.09459000      -4.54759700      -0.32770600
H       -4.59294700      -5.09574800      -1.09675500
H       -4.69319200      -4.96335300       0.67865300
H       -4.95160300      -1.18569000       0.77237600
H       -6.28841300      -2.35246000       0.75590600
H       -4.86396000      -2.64834500       1.78228400
C        6.19582600      -1.61236100      -1.18226000
C        5.47662200       0.52312900      -0.07592400
C        5.91783000      -1.53570100       1.31606600
H        5.80370800      -1.30906200      -2.15996100
H        7.22327900      -1.24604000      -1.09412300
H        6.22319400      -2.70682500      -1.13596400
H        5.85730700      -2.62839800       1.36857200
H        6.96805400      -1.23673100       1.40525800
H        5.36347000      -1.11103300       2.16042200
H        5.04819500       0.92636200      -0.99871700
H        4.97342900       0.99416300       0.77492600
H        6.53643400       0.79475200      -0.02805600
