57
Properties=species:S:1:pos:R:3 pbc="F F F"
Si       0.34823300      -1.71625100      -0.36940900
O        1.76546700      -0.94138000      -0.66158500
C        2.91280700      -0.33730400      -0.02658200
C        2.51652600       0.81238400       0.87672600
H        3.48360900       0.06777100      -0.86855000
C        1.67691400       0.61926800       1.98284700
C        3.01348200       2.09401300       0.61418900
C        1.31315900       1.69959600       2.78864500
H        1.30507700      -0.37388500       2.21277700
C        2.66302400       3.17519700       1.42706700
H        3.66908600       2.24507000      -0.23976100
C        1.80228600       2.98120000       2.51098900
H        0.65332100       1.54088300       3.63748400
H        3.05225900       4.16581600       1.20789400
H        1.51899200       3.82085200       3.14011100
C        3.83042100      -1.34655300       0.70280600
C        4.28323000      -2.43348200      -0.15993100
H        4.69479000      -0.77029000       1.05860000
H        3.32018800      -1.74421100       1.58451300
C        4.65361300      -3.31934400      -0.89541500
H        4.97792000      -4.11080100      -1.53503500
Cl      -0.26636200      -3.29321900      -1.62860600
Cl       0.99410000      -3.05882200       1.26838700
O       -0.79443500      -1.04092800       0.83210100
O       -0.48742700      -0.60683700      -1.68092500
C       -2.33237900       0.49505100      -0.09979700
C       -1.18720800       1.31220900      -0.53685400
C        0.67168000       1.37523300      -2.03270800
C       -3.03601600      -1.55600500       0.91651100
C       -4.37683400      -1.24625800       0.71932200
C       -3.67039500       0.84617500      -0.33956500
C       -4.67064900      -0.03582400       0.08442700
C       -0.96800300       2.64478400      -0.17507800
C        0.07209300       3.33397100      -0.81080900
C        0.88574300       2.72519400      -1.76675700
H       -5.70799500       0.22621700      -0.10330600
H        0.25750500       4.36795800      -0.53607700
H        1.27968000       0.77616600      -2.69596600
N       -2.07836600      -0.69825100       0.50975500
N       -0.33095400       0.71715000      -1.42346300
H       -2.67755700      -2.45797800       1.39533500
C       -4.04191200       2.11668800      -1.05546500
H       -4.19378700       2.92837800      -0.33496800
H       -3.26606400       2.42952600      -1.75836800
H       -4.97953200       1.97146700      -1.59815200
C       -1.76802700       3.32491400       0.90122000
H       -1.07730500       3.69770600       1.66565600
H       -2.30888800       4.18511000       0.49279800
H       -2.47955600       2.65005300       1.37994500
C       -5.45306900      -2.20044100       1.15466000
H       -5.88729300      -2.69408900       0.27641500
H       -5.05887200      -2.96914200       1.82434400
H       -6.25728800      -1.65756900       1.66177600
C        1.98569400       3.46908800      -2.46901000
H        2.43571300       4.20638000      -1.79803500
H        2.76116600       2.78690900      -2.82876800
H        1.57734700       4.00623400      -3.33461200
