57
Properties=species:S:1:pos:R:3 pbc="F F F"
Si       0.66880000      -0.29638700       1.39668700
O        1.47183700      -1.41667200       0.49181400
C        1.92160000      -1.39871800      -0.88550000
C        2.99942200      -0.36146300      -1.10697800
H        1.07305600      -1.19423900      -1.54473600
C        4.05006000      -0.21659200      -0.19187200
C        2.96578200       0.44639300      -2.24896000
C        5.05242700       0.72970800      -0.41582600
H        4.07025600      -0.83197900       0.70328200
C        3.97111500       1.39028400      -2.47831900
H        2.14466800       0.34008900      -2.95454900
C        5.01636700       1.53432800      -1.56016000
H        5.86071400       0.84042900       0.30226500
H        3.93473100       2.01553900      -3.36675100
H        5.79660700       2.27080700      -1.73351800
C        2.45026700      -2.82026000      -1.18599400
C        1.41155900      -3.84612900      -1.11761300
H        2.89138700      -2.80540800      -2.19064200
H        3.25809500      -3.04638400      -0.47880400
C        0.53751200      -4.68126900      -1.07075200
H       -0.21852000      -5.43359600      -1.02521900
Cl       1.49418700       1.48557000       2.19146300
Cl       1.00950800      -1.44754900       3.24396200
O        0.21858900       0.61762800      -0.22306800
O       -1.09008300      -0.44659000       1.69842400
C       -2.00317800       1.33387600      -0.14400000
C       -2.35375800      -0.09295000      -0.26010200
C       -2.07201300      -2.27843300       0.68400700
C       -0.19416700       2.89510700      -0.20669700
C       -1.07553300       3.97391800      -0.16642700
C       -2.92853500       2.37900500      -0.06167900
C       -2.43957300       3.69298200      -0.07622700
C       -3.13877300      -0.62908300      -1.29135700
C       -3.38606600      -2.00724500      -1.28397100
C       -2.87247200      -2.85324800      -0.29735200
H       -3.14868900       4.51362600      -0.01357700
H       -3.98534700      -2.43008900      -2.08524300
H       -1.59597700      -2.82351500       1.48847600
N       -0.66528600       1.63382500      -0.17771300
N       -1.84417800      -0.95015400       0.67172700
H        0.88200600       2.98446400      -0.25559700
C       -4.40767700       2.13453400       0.07074200
H       -4.92737200       2.45872800      -0.83776400
H       -4.64161300       1.08446800       0.25488600
H       -4.79660700       2.73031300       0.90305700
C       -3.68353100       0.22328700      -2.40540600
H       -3.68507300      -0.35064000      -3.33632600
H       -4.71880000       0.51128900      -2.19030500
H       -3.09773800       1.13401500      -2.54839300
C       -0.54205800       5.37958000      -0.17199800
H       -0.43130000       5.73671200       0.85994600
H        0.43850000       5.42910700      -0.65406700
H       -1.23442000       6.05176700      -0.68740000
C       -3.16026200      -4.32769400      -0.28051600
H       -2.52119600      -4.85249200       0.43401900
H       -4.20684000      -4.49601100       0.00170800
H       -3.01411300      -4.75406400      -1.27832500
