57
Properties=species:S:1:pos:R:3 pbc="F F F"
Si       0.46800300      -1.06970500       0.01964000
O        1.50370700       0.21135700       0.10595900
C        2.70159600       0.45098800       0.86640600
C        3.91747100      -0.10532000       0.15864700
H        2.61249900      -0.00540200       1.85532900
C        4.03909300      -0.03292700      -1.23517900
C        4.95816100      -0.66161600       0.91127700
C        5.18787300      -0.51488000      -1.86749900
H        3.22599900       0.38390600      -1.82299900
C        6.11077500      -1.13909700       0.28110000
H        4.85844800      -0.72978400       1.99219500
C        6.22754100      -1.06680700      -1.11074100
H        5.27117700      -0.46259300      -2.95003800
H        6.91023300      -1.57586600       0.87390900
H        7.11954000      -1.44466300      -1.60349100
C        2.81487900       1.98522800       1.04181300
C        1.70420500       2.54975100       1.80524200
H        3.76407300       2.19302400       1.55104600
H        2.87513900       2.44856500       0.04854800
C        0.77069800       2.98298400       2.44054100
H       -0.04758200       3.37566700       3.00297400
Cl       0.53337700      -2.57807600      -1.45669600
Cl       1.38013700      -2.33551800       1.58739200
O       -0.97785200      -0.96116200       1.06975200
O       -0.49290300      -0.09742400      -1.29678600
C       -2.85599300      -0.08747200      -0.07184400
C       -2.11814900       1.18134100      -0.20411100
C       -0.19987600       2.20512800      -1.19089400
C       -2.77248500      -2.35852300       0.68963800
C       -4.06012000      -2.60831400       0.22827500
C       -4.14673700      -0.29738700      -0.58064400
C       -4.72656400      -1.56045900      -0.41270700
C       -2.56597700       2.42177800       0.26228500
C       -1.79963300       3.55341000      -0.04611400
C       -0.61906900       3.46972200      -0.78538100
H       -5.72099100      -1.73184500      -0.81498600
H       -2.13243200       4.52198500       0.31619100
H        0.71093000       2.00646600      -1.73768400
N       -2.22350100      -1.13774800       0.53016100
N       -0.93404000       1.12085100      -0.88722500
H       -2.14506800      -3.08674500       1.18702300
C       -4.89856200       0.77328600      -1.32447600
H       -5.60609200       1.27336400      -0.65342800
H       -4.23168100       1.52911700      -1.74490900
H       -5.47467700       0.31739500      -2.13457200
C       -3.80908200       2.56233200       1.09849400
H       -3.60285400       3.22727500       1.94324100
H       -4.61322400       3.01699300       0.50913200
H       -4.15897000       1.60274300       1.48481600
C       -4.68981400      -3.95991700       0.41552300
H       -5.12888900      -4.30598000      -0.52613200
H       -3.96107400      -4.69629000       0.76369200
H       -5.49845400      -3.89288000       1.15372400
C        0.22786900       4.67345500      -1.08414700
H        0.89067200       4.86727000      -0.23083600
H        0.84955400       4.51291600      -1.96953100
H       -0.39748400       5.55833200      -1.23498500
