57
Properties=species:S:1:pos:R:3 pbc="F F F"
Si       0.31906300      -1.27760800       0.86008300
O        1.98202000      -1.41459600       0.60455300
C        2.65376500      -1.32557400      -0.66436000
C        3.15458500       0.08780900      -0.89299800
H        1.97954900      -1.60979500      -1.48162100
C        3.92875100       0.72748000       0.08621900
C        2.83505100       0.77693200      -2.06738500
C        4.36485500       2.04129700      -0.10319500
H        4.16317900       0.20349400       1.00830500
C        3.26894400       2.09281300      -2.26029300
H        2.22634900       0.28692600      -2.82344500
C        4.03291500       2.72892300      -1.27692000
H        4.95659900       2.53060800       0.66586200
H        3.00431600       2.62161400      -3.17217900
H        4.36479900       3.75350000      -1.42111000
C        3.84618200      -2.31366300      -0.64254100
C        3.45408400      -3.71801500      -0.55875100
H        4.43467700      -2.14819700      -1.55439900
H        4.48865200      -2.05050300       0.20736700
C        3.13195700      -4.88252000      -0.50361000
H        2.83981700      -5.90813100      -0.44657900
Cl       0.62676400      -1.27774300       2.96307700
Cl      -0.31771100      -3.02951800      -0.15073100
O        0.14847400       0.06917700      -0.34412500
O       -1.45966300      -0.83505800       1.41234800
C       -1.60975600       1.54658500       0.14692200
C       -2.52584000       0.45870000      -0.23625100
C       -3.25809200      -1.75532600       0.27954600
C        0.68340300       2.20963000       0.34907200
C        0.32035900       3.49335000       0.74285800
C       -2.02606100       2.81470900       0.57704200
C       -1.04331700       3.77037600       0.86390800
C       -3.50094200       0.56661600      -1.23491400
C       -4.36483000      -0.51930900      -1.43242100
C       -4.27197800      -1.68665400      -0.67351100
H       -1.35836900       4.75379200       1.20175600
H       -5.12451300      -0.44581700      -2.20544500
H       -3.07095900      -2.61176300       0.91220700
N       -0.26848400       1.29470700       0.07768600
N       -2.42232600      -0.71548800       0.45970300
H        1.70442700       1.87030900       0.23877600
C       -3.47773300       3.16239300       0.76977100
H       -3.81786800       3.82107200      -0.03718100
H       -4.11727700       2.27821100       0.78814600
H       -3.59698000       3.70571600       1.71230000
C       -3.62715400       1.78782700      -2.10540200
H       -3.83706300       1.47938500      -3.13396300
H       -4.46480000       2.40904400      -1.76865100
H       -2.72045900       2.39674100      -2.09791400
C        1.37777700       4.51853100       1.04325400
H        1.33106300       4.80564100       2.10043100
H        2.37641900       4.13308400       0.82421000
H        1.20553700       5.42180900       0.44725400
C       -5.18095200      -2.86451700      -0.88906800
H       -4.73572400      -3.54496700      -1.62638600
H       -5.32774600      -3.42521600       0.03878600
H       -6.15122300      -2.53768800      -1.27334900
