57
Properties=species:S:1:pos:R:3 pbc="F F F"
Si      -0.03493300      -1.76892100       0.18017200
O       -1.56624100      -1.18451100       0.37590000
C       -2.70893000      -1.06424300      -0.50732200
C       -2.75882900       0.37133700      -1.00533300
H       -2.56991700      -1.73186200      -1.36169300
C       -3.68899200       1.31363100      -0.54990500
C       -1.79759700       0.77084300      -1.94828600
C       -3.65561000       2.62978500      -1.02094900
H       -4.44749700       1.03198300       0.17292300
C       -1.75252100       2.08626600      -2.40844400
H       -1.08077400       0.04315800      -2.31903100
C       -2.68239700       3.02318000      -1.94161700
H       -4.38839200       3.34741100      -0.66244700
H       -0.99943300       2.38004100      -3.13467300
H       -2.65314900       4.04803900      -2.30168500
C       -3.95334700      -1.51477800       0.27788900
C       -3.90170400      -2.92653500       0.65028000
H       -4.83694600      -1.32531000      -0.34461900
H       -4.05287700      -0.89899300       1.18074400
C       -3.84354300      -4.09586400       0.95189800
H       -3.79174800      -5.12972700       1.21481100
Cl      -0.44263900      -3.16589400      -1.49183400
Cl       0.81905800      -3.24646200       1.41984500
O        0.51923100      -0.56872300       1.53967400
O        1.03845600      -0.90132800      -0.95737700
C        1.04993700       1.44578100       0.46487900
C        2.31513700       0.78473900       0.10010500
C        3.32853900      -1.15265100      -0.88013000
C       -0.91680100       1.24028600       1.80193700
C       -1.27843000       2.55940600       1.53886100
C        0.69542500       2.74927500       0.10878200
C       -0.47688300       3.28546100       0.65803700
C        3.58109500       1.28350900       0.44407200
C        4.70679300       0.52869000       0.09260300
C        4.60567200      -0.69547800      -0.57345100
H       -0.76537200       4.29603100       0.38537600
H        5.68914400       0.90064500       0.36941900
H        3.11684600      -2.08368500      -1.38959500
N        0.20661500       0.72765300       1.27046600
N        2.25067700      -0.41675600      -0.54459500
H       -1.49481500       0.55651300       2.40685600
C        1.50783800       3.56395200      -0.85988500
H        2.00711500       4.38829300      -0.33845100
H        2.26266100       2.96500300      -1.37357500
H        0.83826200       4.00216700      -1.60736500
C        3.75288800       2.57357800       1.19949000
H        4.61373500       2.49550900       1.86909200
H        3.94667100       3.39521000       0.50024800
H        2.86680900       2.82723000       1.78529700
C       -2.49401500       3.15333900       2.19080500
H       -3.01622400       3.81427200       1.49389000
H       -3.18230200       2.37641900       2.53419500
H       -2.18894800       3.74942800       3.06056800
C        5.81546400      -1.50132400      -0.95427100
H        6.54134400      -1.50407400      -0.13484800
H        5.54684100      -2.53143200      -1.20243100
H        6.30115000      -1.05020800      -1.82856100
