69
Properties=species:S:1:pos:R:3 pbc="F F F"
Si      -0.01466100      -1.24402800       0.19196300
O        1.48896400      -1.78650300      -0.26177200
C        2.83215800      -1.38528900       0.01936100
C        3.75939400      -2.52288200      -0.35594400
H        3.07042700      -0.51656200      -0.59708400
C        3.51364400      -3.82364500       0.10427900
C        4.89570400      -2.26873500      -1.13094900
C        4.39636500      -4.85840800      -0.21095400
H        2.62316100      -4.01882200       0.69570000
C        5.78441700      -3.30313600      -1.44298800
H        5.08212900      -1.26010200      -1.49367300
C        5.53535900      -4.59964400      -0.98357100
H        4.19738900      -5.86624200       0.14428300
H        6.66346700      -3.09792000      -2.04845000
H        6.22162000      -5.40590500      -1.22920400
C        3.05156600      -1.01242400       1.51284500
C        2.18666500       0.06472800       1.98012000
H        4.10431300      -0.72745500       1.62875500
H        2.87829400      -1.90530100       2.12507300
C        1.43740900       0.93301500       2.36864600
H        0.78020600       1.68593400       2.74433600
Cl      -1.21210100      -2.20597800      -1.25083900
Cl      -0.12404200      -2.48727700       1.97195100
O       -1.27181000      -0.19853400       1.06051700
O        0.31948200       0.35057500      -0.87500000
C       -2.21990400       1.44832600      -0.33294700
C       -0.98216100       2.22149500      -0.21952200
C        1.37619500       2.36351400      -0.42997800
C       -3.47502600      -0.45966800       0.34959000
C       -4.63042800      -0.04846300      -0.32345200
C       -3.33508700       1.90969100      -1.01274400
C       -4.51382000       1.16461200      -1.01289200
C       -1.00704400       3.56870200       0.10435700
C        0.17340300       4.30428200       0.17343900
C        1.41558300       3.72185600      -0.09815300
H       -3.26837900       2.84582900      -1.55338000
H       -5.36346400       1.54447400      -1.56546600
H       -1.96227000       4.03025200       0.32296600
H        0.11746200       5.35075600       0.44343200
C        2.74247900       4.49170400      -0.04731700
F        2.45767500       1.69745900      -0.77191700
N       -2.31749800       0.25752100       0.32727200
N        0.22772000       1.62505500      -0.47323800
F       -3.41640800      -1.55354600       1.07378300
C       -5.91548100      -0.88422300      -0.28386600
C       -6.41504800      -0.99864900       1.17772600
C       -7.02784100      -0.22460600      -1.11949600
C       -5.64199500      -2.29109400      -0.87195600
H       -6.60865600      -0.00445000       1.59585900
H       -7.35374600      -1.56315100       1.17689400
H       -5.70261600      -1.52238900       1.81943800
H       -7.91699000      -0.85982800      -1.06580500
H       -7.29227600       0.76533200      -0.73032200
H       -6.73901500      -0.12940100      -2.17241500
H       -6.58265800      -2.85217100      -0.87086000
H       -5.28618700      -2.21311900      -1.90529400
H       -4.90928500      -2.85097400      -0.28632900
C        3.68667100       3.83699800       0.99056400
C        3.39918500       4.49665200      -1.45021800
C        2.51367000       5.95467100       0.37571700
H        3.93927000       2.80672000       0.73166000
H        4.61290000       4.42042800       1.02969300
H        3.22724400       3.84708300       1.98471000
H        3.65997200       3.49224200      -1.79124800
H        2.73094100       4.95943400      -2.18506600
H        4.31899700       5.08911300      -1.39698900
H        2.06571600       6.01972400       1.37378200
H        3.48489800       6.45780200       0.40361500
H        1.87459100       6.48654200      -0.33818500
