69
Properties=species:S:1:pos:R:3 pbc="F F F"
Si      -0.10248800       0.88957600       0.83538300
O        0.38695600       1.80867900      -0.43995200
C        0.43328400       3.25025900      -0.54923200
C       -0.95306900       3.84806600      -0.44940400
H        1.06944900       3.65225300       0.24465700
C       -2.02013300       3.29519500      -1.17146000
C       -1.17311700       4.97509500       0.34955800
C       -3.29266900       3.86332200      -1.09151100
H       -1.85391900       2.40952900      -1.77819000
C       -2.44580700       5.54904200       0.42619800
H       -0.34771000       5.39555800       0.91910400
C       -3.50787300       4.99319500      -0.29365300
H       -4.11679400       3.42493300      -1.64845600
H       -2.60910300       6.42136600       1.05351700
H       -4.49926500       5.43398700      -0.22963100
C        1.07052600       3.56833600      -1.92097900
C        2.45449400       3.11529500      -2.04163200
H        1.02396700       4.65564300      -2.06075300
H        0.44951900       3.11478900      -2.70396500
C        3.60496000       2.75119800      -2.12606200
H        4.62049900       2.43246800      -2.20495300
Cl      -2.03849400       0.77329400       1.67265000
Cl       0.68033300       2.13383000       2.47368400
O       -0.61732700      -0.29838000      -0.60832100
O        0.92712100      -0.43577700       1.44013500
C       -0.31661800      -2.53346400       0.05733100
C        1.13052500      -2.30979100       0.00863900
C        3.00372300      -0.91868900       0.51787500
C       -2.47953100      -1.69025800      -0.46389900
C       -3.11149200      -2.91065600      -0.19312100
C       -0.88173600      -3.76806700       0.32547000
C       -2.26136400      -3.94311700       0.22053100
C        1.98792100      -3.17459500      -0.64908500
C        3.35420800      -2.90186900      -0.71224900
C        3.91456200      -1.75445200      -0.13849800
H       -0.23725600      -4.58596600       0.62478700
H       -2.67730000      -4.91467400       0.45375200
H        1.57167900      -4.04766100      -1.13633200
H        3.99307200      -3.59932000      -1.23840300
C        5.41167400      -1.42452200      -0.18841100
F        3.35332000       0.18884700       1.13112800
N       -1.14073300      -1.49856600      -0.30672900
N        1.67443800      -1.20280400       0.59997000
F       -3.12367600      -0.64063900      -0.92641700
C       -4.62754600      -3.07527700      -0.35630800
C       -5.01975600      -2.84292100      -1.83721600
C       -5.07234600      -4.49562300       0.03693700
C       -5.36542200      -2.06912900       0.56168000
H       -4.49290300      -3.54863400      -2.48941900
H       -6.09667600      -3.01571000      -1.93911600
H       -4.80522600      -1.82437400      -2.16887300
H       -6.15760100      -4.56037600      -0.08440500
H       -4.61118800      -5.25425400      -0.60541400
H       -4.83106100      -4.71881500       1.08240300
H       -6.44349400      -2.22854300       0.45047400
H       -5.09632600      -2.23801500       1.61023800
H       -5.14517200      -1.03092200       0.30275700
C        5.62791800      -0.05953900      -0.88502900
C        5.97952200      -1.38850400       1.25235800
C        6.18298000      -2.49481600      -0.98186200
H        5.16562400       0.76320600      -0.33569600
H        6.70529900       0.12934100      -0.94291900
H        5.22235800      -0.08088700      -1.90235800
H        5.51762100      -0.60653300       1.85995600
H        5.83619400      -2.35569100       1.74680900
H        7.05416600      -1.18564200       1.19300200
H        5.83511900      -2.55585300      -2.01934100
H        7.24076800      -2.21609300      -0.99146200
H        6.09559800      -3.48303300      -0.51658900
