69
Properties=species:S:1:pos:R:3 pbc="F F F"
Si       0.13621700       0.92872400       1.34288400
O        0.54974600       2.20125500       0.38402800
C        0.12915500       2.60686400      -0.94220000
C       -1.35045600       2.91430400      -1.00134000
H        0.36917700       1.81381200      -1.65626200
C       -1.97980000       3.62116700       0.03069500
C       -2.09573600       2.51688600      -2.11663900
C       -3.34305700       3.91546900      -0.04835200
H       -1.40591200       3.92296900       0.90231100
C       -3.45758700       2.81723300      -2.20205400
H       -1.60866200       1.95833300      -2.91292200
C       -4.08507900       3.51502000      -1.16498400
H       -3.82635100       4.45519800       0.76178400
H       -4.02956300       2.49754100      -3.06937100
H       -5.14622700       3.74231600      -1.22437900
C        0.96340500       3.86102500      -1.29323700
C        2.39720300       3.59468500      -1.38972000
H        0.59230200       4.24767400      -2.25070000
H        0.76636100       4.62879000      -0.53449600
C        3.57997700       3.35691300      -1.47908400
H        4.62694200       3.16212000      -1.55346100
Cl      -1.71198400       0.66104900       2.33526000
Cl       1.13666600       1.80488200       3.07860000
O       -0.53470700       0.05862800      -0.24470700
O        1.15036900      -0.53373400       1.57658700
C       -0.29358400      -2.26954000      -0.09055400
C        1.15496500      -2.08439500      -0.21329000
C        3.12103200      -0.87424100       0.39616800
C       -2.44941600      -1.26552000      -0.22389200
C       -3.11560500      -2.49666600      -0.17360800
C       -0.89677800      -3.51412800      -0.04334100
C       -2.28723600      -3.62009200      -0.06793900
C        1.92063600      -2.82312500      -1.09952900
C        3.28836200      -2.57958000      -1.22596600
C        3.93973100      -1.58204800      -0.49112800
H       -0.27170900      -4.39630900       0.02144700
H       -2.72961800      -4.60644700      -0.01473000
H        1.43127200      -3.56940400      -1.71295800
H        3.85335200      -3.17525100      -1.93151200
C        5.43683300      -1.27266300      -0.61417200
F        3.56595500       0.08015700       1.18027900
N       -1.09387800      -1.15632200      -0.15393100
N        1.79214100      -1.13554500       0.53952100
F       -3.07505000      -0.12096800      -0.37761500
C       -4.64557200      -2.57178800      -0.24082500
C       -5.13565600      -1.98888300      -1.59036400
C       -5.12997600      -4.02986200      -0.14579300
C       -5.25911000      -1.78037600       0.94069000
H       -4.69518600      -2.54037800      -2.42861300
H       -6.22444500      -2.09930600      -1.63699000
H       -4.89510200      -0.92841400      -1.69557500
H       -6.22317100      -4.03179700      -0.19074000
H       -4.75290500      -4.63485700      -0.97824700
H       -4.82573900      -4.49361400       0.79925700
H       -6.34871600      -1.88408100       0.89524100
H       -4.91155000      -2.18645700       1.89704100
H       -5.01449100      -0.71652500       0.89758300
C        5.62870900       0.19530400      -1.06817200
C        6.13317500      -1.50823000       0.74927700
C        6.10201400      -2.18911700      -1.65719000
H        5.24319100       0.90753900      -0.33540000
H        6.70118900       0.37877800      -1.19340200
H        5.13199500       0.36919400      -2.02895700
H        5.76089300      -0.83823400       1.52789300
H        5.99759500      -2.54512600       1.07626600
H        7.20491300      -1.32127100       0.62260700
H        5.66559500      -2.04956800      -2.65270200
H        7.16385700      -1.93133900      -1.71061200
H        6.02150900      -3.24538200      -1.37651400
