69
Properties=species:S:1:pos:R:3 pbc="F F F"
Si       0.27649200      -0.76915800       0.30436900
O        1.65301300      -1.61289600      -0.11848200
C        2.51126400      -2.45567000       0.65561000
C        3.71387300      -2.82515100      -0.18585500
H        2.84458800      -1.91625200       1.54918200
C        3.55551500      -3.28124600      -1.50201000
C        4.99707600      -2.75931800       0.36830900
C        4.66896300      -3.66153300      -2.25402600
H        2.56007600      -3.32422900      -1.93529700
C        6.11310400      -3.14613200      -0.38108700
H        5.12175500      -2.40130000       1.38797200
C        5.95079900      -3.59713600      -1.69439400
H        4.53811000      -4.00900200      -3.27571100
H        7.10583700      -3.08891300       0.05785900
H        6.81695100      -3.89373900      -2.28019900
C        1.76154300      -3.74252100       1.10808500
C        0.61320400      -3.43901400       1.95414300
H        2.47520000      -4.37712900       1.64770600
H        1.43788600      -4.29118300       0.21503500
C       -0.33906100      -3.10579100       2.62364500
H       -1.17974400      -2.82689200       3.22002200
Cl       1.16751700       0.14200300       2.09007900
Cl      -0.98224300      -2.13452200      -0.87215000
O        0.37110900       0.50771400      -0.93385600
O       -1.25830000      -0.01974100       1.08921300
C       -1.04278800       2.30604900      -0.35873800
C       -2.22521400       1.43798600      -0.48247300
C       -3.42700600      -0.45409000       0.32979500
C        1.33329000       2.55386500      -0.38362900
C        1.28140500       3.91777900      -0.07039700
C       -1.15253000       3.65479600      -0.07209700
C       -0.00821600       4.44223600       0.06722000
C       -3.32134800       1.77775500      -1.25352400
C       -4.46387700       0.97507700      -1.23983600
C       -4.56345100      -0.16701400      -0.43822500
H       -2.13907200       4.07727300       0.07287100
H       -0.13255000       5.49071800       0.30620800
H       -3.27218300       2.66603800      -1.87140200
H       -5.29914900       1.25920500      -1.86679400
C       -5.80884000      -1.05967100      -0.38384600
F       -3.36752400      -1.46042600       1.17285900
N        0.21578400       1.79280000      -0.52534700
N       -2.30096100       0.30330300       0.28402100
F        2.45529900       1.90337500      -0.58699500
C        2.56091400       4.74370400       0.10637000
C        3.36672400       4.74892000      -1.21648900
C        2.22771300       6.20137100       0.47246200
C        3.41182600       4.14203100       1.25301100
H        2.76766100       5.17290600      -2.03001600
H        4.25305400       5.37665500      -1.07531100
H        3.69940500       3.74852600      -1.50329900
H        3.16816600       6.74616600       0.59711000
H        1.65007200       6.69419700      -0.31753700
H        1.67083100       6.26292500       1.41440800
H        4.30188200       4.76708300       1.38244400
H        2.84716300       4.14259600       2.19179500
H        3.73946400       3.12247700       1.03693300
C       -5.43591800      -2.49831700      -0.82064800
C       -6.38476800      -1.06560300       1.05393500
C       -6.90225900      -0.53818000      -1.33447300
H       -4.69757000      -2.95489000      -0.15747100
H       -6.34339700      -3.11123100      -0.79700300
H       -5.04213100      -2.49967300      -1.84300900
H       -5.69067300      -1.50184900       1.77590300
H       -6.63701600      -0.04752600       1.37105600
H       -7.30113500      -1.66569100       1.05459300
H       -6.55940500      -0.52394000      -2.37531400
H       -7.76229300      -1.21117600      -1.26804500
H       -7.23425300       0.46791700      -1.05416100
