69
Properties=species:S:1:pos:R:3 pbc="F F F"
Si       0.27953100      -0.75935200       0.38019500
O        1.71626600      -1.53462300       0.02649000
C        2.09949000      -2.90784300       0.12985600
C        3.47041900      -3.07355800      -0.49095500
H        1.37799800      -3.53173300      -0.40952600
C        4.51025200      -2.18560100      -0.18180300
C        3.72155600      -4.15357600      -1.34444500
C        5.78296700      -2.37527600      -0.72431300
H        4.31367700      -1.34160000       0.47351900
C        4.99712100      -4.34869100      -1.88434000
H        2.91465500      -4.84098900      -1.58912000
C        6.03037400      -3.45908100      -1.57549700
H        6.58240500      -1.67905300      -0.48347700
H        5.18056600      -5.18926600      -2.54862600
H        7.02118400      -3.60610800      -1.99744000
C        2.13049500      -3.36625600       1.61654700
C        0.81500400      -3.29962900       2.24301100
H        2.51237400      -4.39423200       1.64422500
H        2.84144500      -2.73265500       2.16090100
C       -0.29970900      -3.19628000       2.70351200
H       -1.27985300      -3.11154700       3.11874300
Cl       1.11153300       0.16971500       2.17408300
Cl      -0.96634000      -2.20125600      -0.69331200
O        0.40271200       0.48324800      -0.88717200
O       -1.28300500       0.03482900       1.09745500
C       -1.01985600       2.30723000      -0.41602400
C       -2.20309700       1.44230400      -0.54433200
C       -3.43734400      -0.41248300       0.30142600
C        1.35712700       2.53993300      -0.36657500
C        1.30431900       3.91259500      -0.09503200
C       -1.12962900       3.66560300      -0.17851600
C        0.01449000       4.44935000      -0.02101400
C       -3.27862800       1.76509200      -1.35096700
C       -4.42653300       0.97074300      -1.33919900
C       -4.55296400      -0.14353700      -0.50281500
H       -2.11758700       4.09934800      -0.08612400
H       -0.11107000       5.50544300       0.18092200
H       -3.20963400       2.63430600      -1.99355500
H       -5.24499100       1.23959500      -1.99444200
C       -5.80865700      -1.02131800      -0.44516000
F       -3.40898600      -1.38711700       1.18311000
N        0.23951900       1.78119500      -0.52235800
N       -2.30263200       0.33316700       0.25617400
F        2.48090600       1.87804900      -0.51694400
C        2.58232800       4.73678900       0.09970300
C        3.42178300       4.71048000      -1.20177200
C        2.24517300       6.20308800       0.42524300
C        3.40144700       4.15839200       1.28091200
H        2.84892100       5.12981800      -2.03633100
H        4.31295900       5.32837600      -1.04791300
H        3.74735900       3.70114100      -1.46468000
H        3.18386200       6.74653300       0.56773800
H        1.69477000       6.68153900      -0.39242400
H        1.65925000       6.28623300       1.34767500
H        4.28451400       4.79000300       1.42520100
H        2.81020800       4.17254000       2.20307200
H        3.73990500       3.13694800       1.09262200
C       -5.44113200      -2.48136300      -0.80945700
C       -6.42212400      -0.95754500       0.97553100
C       -6.87004200      -0.53086200      -1.44707500
H       -4.73313300      -2.92012400      -0.10263800
H       -6.35773500      -3.08072000      -0.79328600
H       -5.01213100      -2.52933200      -1.81641700
H       -5.74834200      -1.35987300       1.73540300
H       -6.67824200       0.07534600       1.23666200
H       -7.34046900      -1.55457200       0.98160600
H       -6.49785000      -0.56360000      -2.47729700
H       -7.73844800      -1.19261000      -1.37684500
H       -7.19933600       0.48922200      -1.21906600
