75
Properties=species:S:1:pos:R:3 pbc="F F F"
Si      -0.22338200      -1.67717700      -0.53150700
O        1.40064500      -1.49524200      -0.47978300
C        2.64696500      -1.94369200       0.06379500
C        2.98226200      -1.24646700       1.37021700
H        3.38403800      -1.62827800      -0.68374700
C        2.00808700      -0.74842000       2.24073900
C        4.33522400      -1.10525700       1.71164100
C        2.37997400      -0.10918000       3.42801700
H        0.95687200      -0.84435700       1.99828900
C        4.70919900      -0.47377000       2.89908200
H        5.10004500      -1.47910600       1.03474900
C        3.72970800       0.03140300       3.76127100
H        1.61095300       0.27792800       4.09161000
H        5.76232000      -0.36683600       3.14509200
H        4.01747400       0.53043500       4.68274200
C        2.78568100      -3.48259300       0.19211000
C        2.50798200      -4.17911500      -1.05989600
H        3.82219200      -3.66796200       0.50083700
H        2.13637700      -3.85220500       0.99027700
C        2.26908200      -4.72711200      -2.11118300
H        2.05209700      -5.22012000      -3.03340600
Cl      -1.27885100      -2.50433600      -2.15056900
Cl      -0.47439900      -3.40318400       0.79392400
O       -1.14734000      -0.75594300       0.70597700
O       -0.26216100      -0.06178000      -1.61336200
C       -1.69701800       1.45024500       0.05311100
C       -0.25412200       1.71155700      -0.07727400
C        1.67060300       1.23651400      -1.40200600
C       -3.38385700      -0.20095800       0.45174800
C       -4.42955900       0.70224100       0.23160800
C       -2.68407600       2.40037900      -0.19125300
C       -4.02667000       1.99902700      -0.08567600
C        0.45078100       2.68002800       0.62390200
C        1.79117200       2.90216500       0.26564900
C        2.43570100       2.22665900      -0.76919000
H       -4.78397400       2.74654000      -0.28739100
H        2.33796900       3.65256200       0.82360900
C        3.87563100       2.52531000      -1.20638800
F        2.12486100       0.50288400      -2.39675200
N       -2.08430600       0.17368400       0.36778300
N        0.39568100       0.97001700      -1.03625700
F       -3.57085000      -1.46665900       0.75742800
C       -5.89657000       0.26454100       0.32204200
C       -6.19879000      -0.25737200       1.74850900
C       -6.84304000       1.44411200       0.03444300
C       -6.17241100      -0.84108600      -0.72674900
H       -6.00877600       0.52485800       2.49191600
H       -7.25822200      -0.53142600       1.79733900
H       -5.60671800      -1.13987100       2.00212400
H       -7.87280700       1.08278200       0.11126800
H       -6.71043400       2.25446200       0.76032200
H       -6.69583400       1.84238900      -0.97588000
H       -7.23156100      -1.11409000      -0.66867200
H       -5.96410600      -0.47175000      -1.73702200
H       -5.57756900      -1.74004500      -0.54828900
C        4.75046500       1.25449800      -1.08851400
C        3.86287600       3.03286000      -2.66940300
C        4.50553800       3.61719000      -0.32260100
H        4.40923400       0.45353000      -1.74828600
H        5.77565000       1.51487900      -1.37359400
H        4.75720400       0.88747400      -0.05767700
H        3.47765800       2.28000100      -3.36171900
H        3.25530400       3.94075700      -2.75641300
H        4.89080900       3.27373100      -2.96165900
H        4.55167800       3.30677400       0.72752300
H        5.52725800       3.79417600      -0.67199400
H        3.95301600       4.56109200      -0.39180600
C       -0.16025600       3.46540100       1.75199300
H       -0.27273000       4.51710500       1.46604500
H       -1.13626300       3.07442900       2.04626300
H        0.50843800       3.42814700       2.61841300
C       -2.36062000       3.81365100      -0.59370700
H       -3.11124800       4.17306700      -1.30324600
H       -2.38608500       4.47173000       0.28246300
H       -1.37218000       3.89075700      -1.05166800
