75
Properties=species:S:1:pos:R:3 pbc="F F F"
Si       0.26482400      -1.28009100      -0.24601400
O        1.76805800      -0.65664000      -0.01327500
C        2.97256800      -1.02311900       0.69966700
C        3.51328500      -2.36803700       0.24000600
H        3.68297000      -0.25240600       0.37835100
C        3.61927700      -2.59609600      -1.14096700
C        3.94403500      -3.36314400       1.12462500
C        4.12634100      -3.80139000      -1.62719200
H        3.28855100      -1.82819200      -1.83498100
C        4.45935200      -4.56957300       0.63938900
H        3.86871500      -3.21699400       2.19699800
C        4.54951200      -4.79432000      -0.73628600
H        4.19389900      -3.96506100      -2.69960600
H        4.78250700      -5.33498800       1.34008200
H        4.94546500      -5.73396200      -1.11236600
C        2.79842300      -0.86788400       2.22449100
C        2.34053100       0.46433400       2.61187000
H        3.77522000      -1.05687300       2.68750600
H        2.10642100      -1.62929600       2.59985800
C        1.97540500       1.56952000       2.94043300
H        1.66300300       2.54299800       3.24648300
Cl      -0.35316800      -2.35853000      -1.95033800
Cl       0.35576400      -3.04202800       1.05549600
O       -0.97328700      -0.61889300       0.87211200
O       -0.08013100       0.25044100      -1.37772200
C       -2.10022200       1.28169000       0.02555900
C       -0.80282800       1.97891600       0.03345600
C        1.35700300       2.04789900      -0.97846300
C       -3.23079600      -0.80106900       0.37441500
C       -4.47170900      -0.28232800      -0.01052100
C       -3.29845700       1.86128000      -0.38183400
C       -4.45473200       1.06172000      -0.38082700
C       -0.52666900       3.14777200       0.73103200
C        0.73474500       3.73718000       0.54522600
C        1.70898000       3.22777800      -0.31113800
H       -5.37792600       1.52323800      -0.71034100
H        0.95280000       4.63450900       1.11141300
C        3.08856700       3.86935000      -0.50164500
F        2.14237700       1.45536600      -1.85312500
N       -2.10919500      -0.04145500       0.39032100
N        0.16920900       1.43463800      -0.77216000
F       -3.05156600      -2.04892900       0.75025500
C       -5.73143200      -1.15665000      -0.02807200
C       -6.01816900      -1.68211400       1.40022400
C       -6.95641900      -0.35140400      -0.49722300
C       -5.52793500      -2.33915200      -1.00776700
H       -6.16584000      -0.84661800       2.09384100
H       -6.93825400      -2.27552100       1.37083800
H       -5.21390100      -2.31869400       1.77674100
H       -7.82609300      -1.01504600      -0.48548000
H       -7.16222300       0.49365300       0.16961800
H       -6.82584700       0.02303300      -1.51882600
H       -6.45470700      -2.92222500      -1.04245600
H       -5.31314600      -1.96883800      -2.01647000
H       -4.71923400      -3.00355000      -0.69446900
C        4.19545200       2.85288200      -0.12448500
C        3.25298700       4.32268400      -1.97236600
C        3.25326800       5.10304300       0.40469300
H        4.21449500       1.99302100      -0.79824100
H        5.16452100       3.35879200      -0.19310100
H        4.05532900       2.49713700       0.90158000
H        3.19814000       3.48358900      -2.67032800
H        2.48302900       5.05644200      -2.23676200
H        4.23493500       4.79641400      -2.08060300
H        3.16384000       4.83604100       1.46405900
H        4.25185800       5.51898400       0.24017300
H        2.51768700       5.88034400       0.16848200
C       -1.50539600       3.76420200       1.69342800
H       -1.93729900       4.67583900       1.26503000
H       -2.31738900       3.07994200       1.94802600
H       -0.98154000       4.04601600       2.61230000
C       -3.38815100       3.28804300      -0.85130300
H       -4.08489800       3.35357200      -1.69199300
H       -3.77449100       3.92466600      -0.04710700
H       -2.41767700       3.67925900      -1.16250000
