75
Properties=species:S:1:pos:R:3 pbc="F F F"
Si       0.12062700      -1.43361900      -0.11734300
O        1.64129700      -0.90245500       0.23041300
C        2.66811500      -1.43138100       1.09189200
C        3.56257200      -2.39404600       0.34354200
H        2.21194000      -1.93950900       1.94476900
C        3.92398200      -2.15557800      -0.98894800
C        4.07873900      -3.51323000       1.00672900
C        4.78851300      -3.03133300      -1.65030200
H        3.51517400      -1.29384600      -1.50831400
C        4.94899700      -4.38692900       0.34833500
H        3.79005300      -3.70458500       2.03790200
C        5.30504500      -4.14763400      -0.98282300
H        5.05799400      -2.84407800      -2.68661700
H        5.33948800      -5.25675500       0.87008900
H        5.97549500      -4.82964300      -1.49916300
C        3.48008000      -0.22291500       1.61488900
C        2.67325800       0.71577700       2.39045200
H        4.29682000      -0.61598400       2.23293600
H        3.94073300       0.28754300       0.76115300
C        1.98391600       1.48036800       3.02543100
H        1.38455200       2.15656700       3.59424500
Cl      -0.46513100      -2.46314500      -1.86392100
Cl       0.06656900      -3.23013600       1.15221500
O       -1.12627500      -0.72022600       0.95775400
O       -0.07750000       0.10545000      -1.24308600
C       -2.13538600       1.21778400       0.05300800
C       -0.81617900       1.87057300       0.11587400
C        1.36967200       1.89328100      -0.84074300
C       -3.36760900      -0.81219500       0.36958300
C       -4.56634100      -0.24785100      -0.07904200
C       -3.28679000       1.83852800      -0.42517800
C       -4.47412100       1.08741200      -0.46955900
C       -0.54573500       3.05772900       0.78510100
C        0.70966100       3.65387700       0.58127400
C        1.69033300       3.12465100      -0.25504700
H       -5.36001300       1.58075900      -0.85112300
H        0.91094100       4.58184100       1.10272500
C        3.02546600       3.82341300      -0.54086100
F        2.18561600       1.24629200      -1.64728600
N       -2.21638000      -0.09991900       0.42774100
N        0.17549200       1.29087700      -0.63950500
F       -3.25813400      -2.06084200       0.76791800
C       -5.86106500      -1.06739700      -0.13878800
C       -6.23234300      -1.55056700       1.28507400
C       -7.02686300      -0.21904700      -0.67744400
C       -5.66866300      -2.27743100      -1.08656400
H       -6.37196000      -0.69552500       1.95622200
H       -7.17608000      -2.10326200       1.22652100
H       -5.47398300      -2.21392100       1.70794500
H       -7.92437400      -0.84424500      -0.69601500
H       -7.22582900       0.64664300      -0.03557900
H       -6.83257300       0.13067900      -1.69769200
H       -6.61721400      -2.82226400      -1.14663300
H       -5.39993200      -1.93759600      -2.09299600
H       -4.90168500      -2.96825700      -0.72898600
C        4.21112800       2.91466300      -0.13764600
C        3.10083900       4.16171900      -2.05085100
C        3.14444300       5.13715700       0.25258400
H        4.25302100       2.00228000      -0.73667700
H        5.14180700       3.46859300      -0.30066300
H        4.14456400       2.64774100       0.92177900
H        3.07825000       3.26388800      -2.67403900
H        2.27076300       4.81639600      -2.33962600
H        4.04158600       4.68966100      -2.24169700
H        3.11087200       4.95866000       1.33337000
H        4.10792600       5.59638500       0.01171400
H        2.35266300       5.84544100      -0.01687800
C       -3.29325600       3.25820600      -0.92470500
H       -3.68158100       3.92937800      -0.14999700
H       -2.29444800       3.59834400      -1.20492500
H       -3.95209400       3.33544600      -1.79431300
C       -1.53439200       3.70292800       1.71767900
H       -1.02927200       3.95686100       2.65556500
H       -1.91569800       4.63430600       1.28415900
H       -2.37851900       3.04740300       1.94097900
