75
Properties=species:S:1:pos:R:3 pbc="F F F"
Si       0.48994600      -0.87291500       0.44611400
O        1.99867100      -1.45137800       0.01558600
C        2.58146700      -2.75300000       0.10451100
C        3.92260500      -2.72991300      -0.59944800
H        1.92907800      -3.48375000      -0.38734500
C        4.83746400      -1.69270900      -0.37038100
C        4.27944400      -3.78477800      -1.44682000
C        6.09169100      -1.71192800      -0.98467500
H        4.55687500      -0.86914700       0.28017500
C        5.53690800      -3.80877900      -2.05888200
H        3.56813400      -4.58732500      -1.62967400
C        6.44559600      -2.77149400      -1.82885400
H        6.79424200      -0.90204600      -0.80471000
H        5.80258900      -4.63162400      -2.71755100
H        7.42193400      -2.78560000      -2.30632400
C        2.77432200      -3.18685500       1.58675300
C        1.51027300      -3.34262400       2.29852400
H        3.32523500      -4.13560800       1.58907900
H        3.40137800      -2.43893800       2.08732600
C        0.43192100      -3.43687500       2.83977300
H       -0.51620300      -3.52208700       3.32368800
Cl       1.26028500       0.11417600       2.22678300
Cl      -0.60655900      -2.49700500      -0.49550600
O        0.41316700       0.35594600      -0.84241200
O       -1.13845800      -0.22856700       1.21164100
C       -1.14459300       2.03003000      -0.26413300
C       -2.21439200       1.02909000      -0.45520200
C       -3.22234900      -0.94512900       0.43663300
C        1.21104400       2.46925100      -0.31343100
C        1.04824400       3.81208500       0.04332400
C       -1.37943600       3.34803300       0.11622700
C       -0.27274600       4.20436300       0.25431300
C       -3.26866000       1.17194400      -1.34794300
C       -4.29712100       0.21279100      -1.31272500
C       -4.33059300      -0.85385100      -0.41675900
H       -0.47201500       5.22483500       0.55833600
H       -5.10724400       0.32823300      -2.02264000
C       -5.46348700      -1.88634600      -0.36403400
F       -3.09563300      -1.87939500       1.35565000
N        0.15501000       1.63393600      -0.45547200
N       -2.19864100      -0.06323500       0.38190600
F        2.38058500       1.91256800      -0.53938600
C        2.25345200       4.74672200       0.20440000
C        3.01884000       4.84008900      -1.13829000
C        1.80364500       6.16495100       0.59878300
C        3.18272700       4.20682600       1.31936800
H        2.36028900       5.21519600      -1.92966000
H        3.84822800       5.54465000      -1.01447700
H        3.43282900       3.87725100      -1.44672400
H        2.69551000       6.79150600       0.69515000
H        1.15429800       6.60924700      -0.16436000
H        1.27929900       6.16919100       1.56105400
H        4.01306400       4.91005300       1.44500400
H        2.64143700       4.13485000       2.26912600
H        3.59879000       3.22683500       1.07391700
C       -4.89420000      -3.29208500      -0.67748700
C       -6.12207000      -1.87153400       1.03742900
C       -6.55288600      -1.56819800      -1.40433000
H       -4.15339900      -3.61246000       0.05870900
H       -5.72150200      -4.01015200      -0.66733600
H       -4.43378300      -3.30618000      -1.67158000
H       -5.42174400      -2.15076600       1.82773500
H       -6.53131900      -0.87949500       1.25881100
H       -6.94529900      -2.59420600       1.03930500
H       -6.15653600      -1.59434300      -2.42567100
H       -7.33502400      -2.32889000      -1.32300200
H       -7.00836500      -0.58779100      -1.22367700
C       -2.75949000       3.87468800       0.40336000
H       -3.13730700       4.43172500      -0.46170700
H       -3.46618400       3.07456300       0.63199000
H       -2.71595800       4.56476400       1.25097600
C       -3.34038400       2.29514600      -2.34642700
H       -3.57364800       1.88472100      -3.33424100
H       -4.14543500       2.98796800      -2.07712700
H       -2.40443600       2.85277500      -2.41129700
