75
Properties=species:S:1:pos:R:3 pbc="F F F"
Si       0.34262900       1.73891300      -0.29539900
O       -1.29352800       1.61298900      -0.19485900
C       -2.33650000       2.28981200       0.52281100
C       -3.03252400       1.29403500       1.44657900
H       -1.90369300       3.09814400       1.12098400
C       -2.35374000       0.15572400       1.90407000
C       -4.34783900       1.50590600       1.88834200
C       -2.97847000      -0.76222000       2.75093400
H       -1.32997600      -0.02099200       1.59747700
C       -4.97425400       0.58991000       2.73740100
H       -4.90219300       2.38298700       1.57159700
C       -4.29587600      -0.55438100       3.16591400
H       -2.43279400      -1.64060100       3.08518200
H       -5.99713600       0.77012400       3.05673900
H       -4.78684100      -1.27121900       3.81832200
C       -3.28242200       2.91439000      -0.53096300
C       -2.58821500       3.85022500      -1.41200800
H       -4.09063200       3.44245000      -0.01424300
H       -3.74010200       2.10877900      -1.11774300
C       -1.99254500       4.61955800      -2.12961400
H       -1.46538500       5.29889100      -2.76295200
Cl       1.48828900       2.59688600      -1.83894600
Cl       0.64886200       3.39360400       1.11168700
O        1.19163000       0.66905500       0.86889500
O        0.26791500       0.23205600      -1.50391600
C        1.73761500      -1.44286500      -0.04227000
C        0.29110900      -1.69271700      -0.16621900
C       -1.68627800      -1.04421600      -1.33311900
C        3.43066400       0.14321600       0.55163400
C        4.47306800      -0.72270300       0.20366100
C        2.72168000      -2.35095700      -0.42166200
C        4.06604500      -1.96468800      -0.28260300
C       -0.39076300      -2.74454100       0.43078400
C       -1.74860500      -2.90973700       0.11041700
C       -2.43693900      -2.09325900      -0.78436500
H        4.82179700      -2.67681500      -0.59175800
H       -2.27900700      -3.71864500       0.59703900
C       -3.91521300      -2.29052700      -1.14155700
F       -2.17436200      -0.19363300      -2.21056000
N        2.12994900      -0.21531100       0.42744600
N       -0.39061700      -0.83893800      -1.00152700
F        3.62104100       1.35602100       1.02374300
C        5.94085700      -0.30200600       0.34725400
C        6.24592100       0.00856600       1.83349100
C        6.88525100      -1.42706400      -0.11232300
C        6.21324400       0.94419500      -0.53098100
H        6.05529000      -0.87190300       2.45750700
H        7.30550300       0.27210700       1.92055900
H        5.65416300       0.84641000       2.21013000
H        7.91557400      -1.08131700       0.01424500
H        6.75346700      -2.33507100       0.48695700
H        6.73454500      -1.67198700      -1.16976300
H        7.27433100       1.20129800      -0.44306500
H        5.99507700       0.72748300      -1.58247100
H        5.62514500       1.80986000      -0.21742400
C       -4.72155100      -1.02264500      -0.76916000
C       -4.04397700      -2.58609000      -2.65563300
C       -4.51790400      -3.47556500      -0.36513500
H       -4.61831900      -0.79795100       0.29601100
H       -4.40757700      -0.15005300      -1.34585500
H       -5.77800800      -1.21191100      -0.98883300
H       -3.68695200      -1.75464900      -3.26826600
H       -3.48397600      -3.49000600      -2.92075300
H       -5.10169000      -2.75335400      -2.88670800
H       -4.47696300      -3.30654500       0.71689400
H       -5.56813400      -3.57623600      -0.65514700
H       -4.00705600      -4.41611500      -0.60112500
C        2.39225200      -3.70239900      -0.99593400
H        2.42846800      -4.46513300      -0.20957500
H        1.39812400      -3.72408800      -1.44752100
H        3.13343000      -3.96951500      -1.75421000
C        0.25921500      -3.67296500       1.42022100
H       -0.37984300      -3.76356600       2.30463400
H        0.36666100      -4.67362100       0.98697300
H        1.24291800      -3.31886900       1.73431100
