69
Properties=species:S:1:pos:R:3 pbc="F F F"
Si      -0.13503700      -1.24081100       0.36191700
O        0.96233300      -2.32508300      -0.28520500
C        2.19567700      -2.87951300       0.17066700
C        3.36499900      -2.41100300      -0.67315100
H        2.37812100      -2.60544900       1.21480800
C        3.22893300      -2.18715300      -2.04834900
C        4.61612300      -2.22978900      -0.06959400
C        4.32704800      -1.77286500      -2.80639400
H        2.25717400      -2.31709500      -2.51507400
C        5.71696400      -1.81650800      -0.82636900
H        4.72368400      -2.39973100       0.99983600
C        5.57330600      -1.58423800      -2.19790900
H        4.21040300      -1.59363000      -3.87229600
H        6.68063000      -1.67024000      -0.34534400
H        6.42521300      -1.25698800      -2.78816400
C        2.07978000      -4.42618300       0.08498100
C        1.04025900      -4.97685400       0.95077600
H        3.05464700      -4.85463600       0.35035100
H        1.88176200      -4.69159800      -0.96161300
C        0.17692800      -5.41596600       1.67548300
H       -0.58632100      -5.80407500       2.31366900
Cl       0.37011500      -1.37648100       2.41349000
Cl      -1.73267600      -2.19590500      -0.66450500
O        0.52490400       0.10065500      -0.62533300
O       -1.40227900       0.08309800       1.09524900
C       -0.50961400       2.19123500      -0.35023800
C       -1.84419900       1.62465400      -0.58542800
C       -3.61152900       0.26385400       0.30700900
C        1.84134100       1.90207000       0.08236400
C        2.03564200       3.28617900       0.28407200
C       -0.35344800       3.55559900      -0.17983700
C        0.89574500       4.08498600       0.12103700
C       -2.73030300       2.16719900      -1.49703400
C       -4.04500100       1.71609700      -1.53110900
C       -4.54650900       0.77226900      -0.62242500
H       -1.22584700       4.19338000      -0.25063200
H        0.96913900       5.15562000       0.25269500
H       -2.38490200       2.93542900      -2.17792500
H       -4.70234000       2.14003500      -2.27755800
C       -6.02880400       0.34292100      -0.67701500
Cl      -3.98243300      -0.79990400       1.60108300
N        0.59927800       1.40260500      -0.24522200
N       -2.28974600       0.64141300       0.25411400
Cl       3.06872800       0.71497500       0.17661600
C        3.39526900       3.92195300       0.64979300
C        3.90262100       3.37443100       2.00741300
C        4.43004400       3.67794100      -0.47781900
C        3.26476500       5.45195700       0.80827700
H        4.11319700       2.30469300       1.98704200
H        4.83162200       3.89779700       2.25844500
H        3.16914100       3.57657400       2.79596200
H        5.34937300       4.21219200      -0.21482800
H        4.68005900       2.62501100      -0.61197300
H        4.05775200       4.07869300      -1.42732700
H        4.24976300       5.84714400       1.07295700
H        2.94838200       5.93201600      -0.12441300
H        2.56552700       5.72065300       1.60801900
C       -6.14112500      -1.18473000      -0.91010200
C       -6.76690300       0.76798800       0.61720100
C       -6.76405600       1.02427600      -1.85117200
H       -5.64767800      -1.46325800      -1.84774300
H       -5.71380300      -1.77552900      -0.09936100
H       -7.20374300      -1.43799100      -0.99152100
H       -6.38465000       0.27255100       1.51028300
H       -6.69687100       1.85298500       0.75508500
H       -7.82413000       0.50159400       0.50737400
H       -6.31056600       0.77272000      -2.81638500
H       -7.79575600       0.66056500      -1.85631400
H       -6.79201500       2.11395700      -1.73920900
