69
Properties=species:S:1:pos:R:3 pbc="F F F"
Si      -0.06024900      -1.27972700      -0.17834000
O        1.47303100      -0.86591100       0.26543300
C        2.42308600      -1.50172400       1.13948600
C        3.19684200      -2.59595400       0.43572300
H        1.90524200      -1.92126400       2.00633900
C        3.46097900      -2.54186400      -0.93763600
C        3.70567500      -3.65918600       1.19200300
C        4.22172900      -3.54323900      -1.54833800
H        3.05869400      -1.72514900      -1.52815000
C        4.47126100      -4.65737300       0.58467800
H        3.49204000      -3.70886200       2.25759300
C        4.73085100      -4.60156000      -0.78916600
H        4.41497100      -3.49723800      -2.61704200
H        4.85558500      -5.48176000       1.17968600
H        5.31973400      -5.38120000      -1.26517100
C        3.38138200      -0.39042300       1.63228200
C        2.70932800       0.62455700       2.43915000
H        4.17184200      -0.87059800       2.22210700
H        3.86315400       0.06844700       0.76065800
C        2.13455100       1.44824000       3.11281500
H        1.63914700       2.18010100       3.71167200
Cl      -0.61569700      -2.15833600      -2.01026400
Cl      -0.25310600      -3.13217000       0.98379100
O       -1.32727800      -0.57055000       0.86814500
O       -0.11314800       0.34772100      -1.19921200
C       -2.04354700       1.56553700       0.22723000
C       -0.66447000       2.06950000       0.25522600
C        1.50565400       2.00842700      -0.77084000
C       -3.58513600      -0.28568100       0.29834700
C       -4.68880800       0.54807900       0.01003100
C       -3.10282600       2.41682000      -0.02889800
C       -4.39431300       1.91207600      -0.12652100
C       -0.30760400       3.22135400       0.93062800
C        0.97276400       3.73804000       0.77676300
C        1.92205900       3.17137100      -0.08589200
H       -2.90167800       3.46908800      -0.18720800
H       -5.19124600       2.61068600      -0.33961800
H       -1.03095000       3.70107200       1.57873000
H        1.22769200       4.62331100       1.34161800
C        3.31444900       3.82090400      -0.24777200
Cl       2.41934200       1.19647500      -1.97412800
N       -2.31799400       0.24139500       0.41183600
N        0.26344500       1.46574800      -0.54540900
Cl      -3.66954800      -1.97444200       0.55715200
C       -6.13824600       0.03918100      -0.14907800
C       -6.23089100      -0.96074800      -1.32910900
C       -6.64036700      -0.60096100       1.17020100
C       -7.10218700       1.20134100      -0.47200600
H       -5.64395900      -1.86589900      -1.16990500
H       -7.28048600      -1.25223700      -1.44492600
H       -5.90066700      -0.48311700      -2.25833300
H       -7.69427700      -0.86770800       1.03645500
H       -6.09733300      -1.50616000       1.44306400
H       -6.56846700       0.11824500       1.99389600
H       -8.10615900       0.78170400      -0.58270900
H       -7.13284000       1.94154200       0.33543400
H       -6.83869600       1.70133900      -1.41082900
C        4.44038700       2.81894100       0.10866300
C        3.48839200       4.36638300      -1.68702700
C        3.48036700       5.02089900       0.70994700
H        4.30745000       2.45072600       1.13070600
H        4.49171200       1.96923300      -0.57294000
H        5.39617300       3.35088700       0.05117800
H        3.47106200       3.58222900      -2.44515800
H        2.70436700       5.09757300      -1.91435700
H        4.45851400       4.87240500      -1.74339600
H        3.37678300       4.71864900       1.75826300
H        4.48732100       5.42490100       0.57057000
H        2.76474400       5.82157300       0.49191300
