69
Properties=species:S:1:pos:R:3 pbc="F F F"
Si       0.03970300       0.91511500       1.28649600
O        0.38165700       2.20793000       0.32901200
C       -0.10838900       2.65317600      -0.95316100
C       -1.55364000       3.09948200      -0.88757400
H       -0.00890900       1.84850000      -1.68702100
C       -2.10261800       3.64141000       0.27970000
C       -2.34677100       3.00002600      -2.03784400
C       -3.43691900       4.05782100       0.30204200
H       -1.49219700       3.72287800       1.17389900
C       -3.67806000       3.42204400      -2.01975500
H       -1.92389000       2.57400200      -2.94512500
C       -4.22845000       3.94751100      -0.84519700
H       -3.85785500       4.46613800       1.21706900
H       -4.28684000       3.33132800      -2.91556600
H       -5.26685700       4.26746200      -0.82492000
C        0.80361200       3.82813000      -1.38329000
C        2.18401200       3.42043700      -1.63455900
H        0.37458200       4.26519400      -2.29351700
H        0.76398700       4.59736400      -0.60180000
C        3.31720300       3.05942000      -1.85549500
H        4.32135600       2.74993600      -2.04285400
Cl      -1.79429900       0.47974900       2.25040600
Cl       0.88278900       1.89195100       3.05812300
O       -0.52653100      -0.02618900      -0.31196100
O        1.20281700      -0.41810400       1.54613400
C       -0.18133000      -2.29491700       0.01284600
C        1.25854000      -2.04663000      -0.13637200
C        3.21101900      -0.72664100       0.36900500
C       -2.40131400      -1.44745600      -0.34983600
C       -2.97695800      -2.72324400      -0.15128600
C       -0.69995400      -3.56376400       0.18671200
C       -2.07611600      -3.75785900       0.13992000
C        2.02049700      -2.81527400      -0.99698300
C        3.37232400      -2.53897300      -1.16630300
C        4.01982700      -1.48419400      -0.50838300
H       -0.02363800      -4.39048400       0.36608700
H       -2.44957300      -4.75730100       0.31299900
H        1.54071000      -3.61154900      -1.55266700
H        3.92861900      -3.16465100      -1.85042300
C        5.52434600      -1.21975700      -0.74411300
Cl       3.75352000       0.59461900       1.30663700
N       -1.04705600      -1.25561500      -0.19198500
N        1.87955200      -1.03782400       0.54059100
Cl      -3.24973100      -0.04487600      -0.84795200
C       -4.49335600      -3.00392100      -0.22819900
C       -5.25069400      -2.14107200       0.81223400
C       -5.02405500      -2.75102900      -1.66186200
C       -4.80386300      -4.47905000       0.10631200
H       -5.17846300      -1.07101400       0.61488500
H       -6.30935400      -2.42083400       0.78170300
H       -4.86925100      -2.34101200       1.81980500
H       -6.08497200      -3.02367500      -1.68570500
H       -4.93539400      -1.70982700      -1.97289400
H       -4.49033600      -3.38337300      -2.38040900
H       -5.88835600      -4.61240200       0.05672100
H       -4.34585900      -5.16624700      -0.61407000
H       -4.47499800      -4.74466600       1.11722500
C        5.74601000       0.19366000      -1.33714000
C        6.31894900      -1.40418500       0.57363400
C        6.11103600      -2.22437700      -1.75901900
H        5.19895200       0.29903600      -2.28066500
H        5.44376400       0.99213400      -0.65928500
H        6.81526900       0.31132000      -1.54318100
H        6.05183300      -0.67775300       1.34173300
H        6.16651200      -2.41375400       0.97087900
H        7.38347600      -1.28059000       0.34723700
H        5.62568100      -2.14523800      -2.73822100
H        7.17159800      -1.98960300      -1.88707600
H        6.03546600      -3.25712900      -1.40036000
