69
Properties=species:S:1:pos:R:3 pbc="F F F"
Si      -0.32488200       1.31847200       1.31408400
O        0.23010900       2.48616600       0.29731800
C        0.09258500       2.68093300      -1.13755100
C        1.15163200       1.89444800      -1.87506400
H       -0.89928000       2.35718400      -1.45895700
C        2.51167900       2.11937400      -1.62081100
C        0.78091700       0.93064600      -2.81932200
C        3.48564900       1.39445600      -2.30812100
H        2.80470400       2.85605000      -0.87798300
C        1.75475100       0.19857200      -3.50525000
H       -0.27428400       0.75031700      -3.00683400
C        3.10961800       0.43027500      -3.25030800
H        4.53661600       1.57667500      -2.10587400
H        1.45699500      -0.54900300      -4.23600100
H        3.86917100      -0.13632700      -3.78275900
C        0.22025600       4.19907200      -1.38902400
C       -0.86972200       4.96390500      -0.78702600
H        0.23174900       4.35563800      -2.47521000
H        1.18736000       4.54251100      -1.00179900
C       -1.78925100       5.57039300      -0.28742800
H       -2.59339800       6.11419200       0.15803000
Cl       0.53726800       2.30443600       3.06554600
Cl      -2.27354600       1.25031300       2.15009800
O       -0.90967400       0.34267000      -0.24121600
O        0.58271300      -0.15784000       1.77539500
C       -0.98695200      -1.91613800       0.25245800
C        0.48171900      -1.92490900       0.23388400
C        2.59055100      -0.93602400       0.85152900
C       -2.98540100      -0.74161000      -0.38475300
C       -3.79117500      -1.88120200      -0.16691200
C       -1.73257800      -3.06403000       0.44500900
C       -3.11177400      -3.02747600       0.27238600
C        1.16646100      -2.89140600      -0.48106000
C        2.55574800      -2.89286000      -0.50038400
C        3.32510600      -1.92902000       0.16577900
H       -1.22913700      -3.97761700       0.73595300
H       -3.66652900      -3.93503700       0.46442400
H        0.60106600      -3.63373100      -1.03079300
H        3.04817800      -3.67353600      -1.06284000
C        4.86776000      -2.02709200       0.17141800
Cl       3.27736600       0.37472900       1.70629000
N       -1.63971900      -0.76736300      -0.09893600
N        1.21338900      -0.98207600       0.89557700
Cl      -3.52567200       0.73966100      -1.06275300
C       -5.32011300      -1.90802400      -0.37770100
C       -6.00366000      -0.84159700       0.51454100
C       -5.66821100      -1.69653700      -1.87267500
C       -5.91501100      -3.27403900       0.02777500
H       -5.72116100       0.17929900       0.25545600
H       -7.08755300      -0.93623700       0.38758000
H       -5.76222500      -1.01797000       1.56860900
H       -6.75384200      -1.79115300      -1.98467200
H       -5.37469300      -0.71491500      -2.24610000
H       -5.18971800      -2.46825200      -2.48628000
H       -6.99820400      -3.22312400      -0.11621700
H       -5.53006800      -4.08848600      -0.59601800
H       -5.72400100      -3.50624900       1.08163600
C        5.52897100      -0.78130400      -0.46375900
C        5.36770000      -2.24261400       1.62331300
C        5.34740300      -3.24431900      -0.64902800
H        5.21108300      -0.67355300      -1.50455100
H        5.30684900       0.14421300       0.06713900
H        6.61383300      -0.93201000      -0.44501800
H        5.16166000      -1.39400400       2.27720900
H        4.91218100      -3.14145100       2.05371500
H        6.45288100      -2.38805700       1.58926400
H        5.05369400      -3.16625700      -1.70200100
H        6.44001700      -3.26740200      -0.60412200
H        4.97352300      -4.18884000      -0.23820900
