69
Properties=species:S:1:pos:R:3 pbc="F F F"
Si      -0.10951700       0.91765400       0.83730500
O        0.33458000       1.82733600      -0.45936800
C        0.44538400       3.26349200      -0.57746900
C       -0.90738800       3.92546900      -0.43401900
H        1.12752800       3.63876900       0.19083300
C       -2.01838400       3.42521900      -1.12730300
C       -1.05319200       5.05701200       0.37506000
C       -3.26151300       4.04871000      -1.00798000
H       -1.90767200       2.53766100      -1.74378800
C       -2.29614100       5.68685500       0.49097500
H       -0.19393200       5.43672100       0.92251000
C       -3.40259200       5.18260100      -0.19934600
H       -4.12034800       3.65102200      -1.54265500
H       -2.40194600       6.56251900       1.12595300
H       -4.37093600       5.66690700      -0.10447800
C        1.04793700       3.54325300      -1.97338300
C        2.39142700       2.99616500      -2.14960800
H        1.06803800       4.63164000      -2.11105500
H        0.36761200       3.13356700      -2.73083400
C        3.50687700       2.54689100      -2.28061700
H        4.48970500       2.14798100      -2.39940800
Cl      -2.03296000       0.76077100       1.70274900
Cl       0.62699600       2.21535800       2.45804500
O       -0.60892300      -0.31192800      -0.58435700
O        0.97807200      -0.35389000       1.44901800
C       -0.35803600      -2.47378200       0.22778300
C        1.09549700      -2.28759000       0.13562500
C        3.04499500      -0.91337700       0.48238900
C       -2.51311400      -1.68453100      -0.48006400
C       -3.14440000      -2.88351500      -0.07757000
C       -0.92923700      -3.67069200       0.61614100
C       -2.30291300      -3.84839200       0.49577800
C        1.88787600      -3.22504500      -0.50089300
C        3.25257700      -3.00143300      -0.64287000
C        3.88414000      -1.84002300      -0.17667800
H       -0.29504000      -4.45372100       1.01407600
H       -2.72039100      -4.78486500       0.83765000
H        1.42171600      -4.11220200      -0.91189100
H        3.83330500      -3.75653600      -1.15415400
C        5.40186200      -1.63676700      -0.38330500
Cl       3.56216300       0.56407300       1.16912600
N       -1.17059100      -1.48309500      -0.25265600
N        1.70039500      -1.17070100       0.63250400
Cl      -3.27995200      -0.40073000      -1.32210500
C       -4.65613700      -3.15941300      -0.23702900
C       -5.48537900      -2.09119600       0.51895600
C       -5.04264400      -3.21033500      -1.73626100
C       -5.03933500      -4.52789900       0.36691000
H       -5.36654400      -1.08808600       0.10846700
H       -6.54335600      -2.36520700       0.44299700
H       -5.20848300      -2.07505800       1.57890700
H       -6.10405100      -3.47280800      -1.80485700
H       -4.89628900      -2.25839400      -2.24751500
H       -4.46277100      -3.98385700      -2.25225900
H       -6.11820700      -4.65878200       0.24129400
H       -4.53752200      -5.35549200      -0.14702300
H       -4.81427100      -4.57872800       1.43825600
C        5.67029200      -0.37276600      -1.23777200
C        6.12899100      -1.55582100       0.98219300
C        6.02164000      -2.82759000      -1.14659800
H        5.15177400      -0.44757700      -2.20015500
H        5.36656500       0.54943200      -0.74201800
H        6.74717300      -0.31476400      -1.42908900
H        5.82983700      -0.69291600       1.57797900
H        5.94840200      -2.46712600       1.56301100
H        7.20449200      -1.47771700       0.78956800
H        5.58428500      -2.94384800      -2.14449800
H        7.09027800      -2.62791400      -1.26730700
H        5.91508900      -3.76737100      -0.59323700
