75
Properties=species:S:1:pos:R:3 pbc="F F F"
Si       0.15828400       1.35700800      -0.98923100
O       -0.82880100       1.91934800       0.19406800
C       -1.90052900       2.88144000       0.23590700
C       -3.09584900       2.26188600       0.92577300
H       -2.17599100       3.18075900      -0.77791300
C       -2.95000200       1.58409600       2.14449200
C       -4.37254700       2.41369800       0.37384700
C       -4.06867600       1.07051100       2.80283500
H       -1.95814800       1.45688700       2.56907700
C       -5.49484500       1.90297800       1.03412700
H       -4.48619900       2.93200200      -0.57559400
C       -5.34463200       1.23321800       2.25114200
H       -3.94725900       0.54376900       3.74592400
H       -6.48189500       2.02320800       0.59549300
H       -6.21469600       0.83014300       2.76247600
C       -1.40194200       4.12398700       1.01356500
C       -0.27065300       4.78053800       0.36435100
H       -2.24418800       4.82133800       1.10581500
H       -1.12764000       3.80914900       2.02863700
C        0.66921900       5.29126200      -0.19974600
H        1.49859700       5.74150900      -0.69940500
Cl      -0.81064300       2.24656400      -2.75667100
Cl       2.07084400       2.02447700      -1.61022100
O        0.96362300       0.48074700       0.57037300
O       -0.16880000      -0.26587800      -1.66018900
C        1.70357300      -1.57799600      -0.19060000
C        0.28479800      -1.98154100      -0.14401200
C       -1.98059300      -1.52120600      -0.84633100
C        3.26613100       0.02941500       0.68531300
C        4.36690800      -0.78287200       0.32600900
C        2.74079400      -2.40852100      -0.58517800
C        4.04868400      -1.96676500      -0.34319600
C       -0.15923500      -3.04198200       0.63944400
C       -1.53174100      -3.31858000       0.63858900
C       -2.48443000      -2.60032800      -0.08730400
H        4.84899200      -2.61422800      -0.67699600
H       -1.85891700      -4.14187600       1.25965800
C       -3.97777500      -2.98874500      -0.02549000
Cl      -2.92060500      -0.47188500      -1.81753800
N        1.99549100      -0.34831900       0.34560700
N       -0.63595700      -1.25534700      -0.84479000
Cl       3.35643000       1.49548500       1.57642600
C        5.83866000      -0.41519500       0.61270100
C        6.20445600       0.92733000      -0.06806700
C        6.09317000      -0.35622700       2.13971200
C        6.80254300      -1.47778200       0.04267600
H        5.64293100       1.77431600       0.32745800
H        7.27001500       1.11731400       0.10164900
H        6.03281200       0.86342000      -1.14843200
H        7.15720000      -0.14998200       2.30014700
H        5.51804400       0.42449100       2.63877600
H        5.85574000      -1.32130100       2.60176300
H        7.82423100      -1.16011200       0.27055900
H        6.64324900      -2.46063200       0.50029200
H        6.71110700      -1.56856200      -1.04557900
C       -4.80921800      -1.82741100       0.57063600
C       -4.48958500      -3.38890000      -1.43175300
C       -4.20058200      -4.21074200       0.89168100
H       -4.44650100      -1.57327300       1.57140700
H       -4.79083000      -0.92384000      -0.03776400
H       -5.84984700      -2.15981100       0.65417600
H       -4.46226500      -2.56725000      -2.14812700
H       -3.90004800      -4.22365800      -1.82779500
H       -5.52989200      -3.71769900      -1.33353900
H       -3.90044500      -4.00497400       1.92530900
H       -5.27098000      -4.43706700       0.89091100
H       -3.66697400      -5.09756300       0.53121300
C        0.76909400      -3.86780700       1.48806500
H        1.13201200      -4.73340500       0.92200300
H        1.63660300      -3.29413500       1.82260100
H        0.23037900      -4.24310100       2.36202800
C        2.51157500      -3.73024100      -1.26528800
H        3.05023800      -3.74037000      -2.21933200
H        2.91182300      -4.54545700      -0.65274000
H        1.45478000      -3.92018200      -1.46198400
