75
Properties=species:S:1:pos:R:3 pbc="F F F"
Si       0.10827100      -1.43212900      -0.12996700
O        1.62340700      -0.91666600       0.27063700
C        2.63208500      -1.48237100       1.12657100
C        3.44723700      -2.53979400       0.41357200
H        2.16223200      -1.91952500       2.01140000
C        3.68568400      -2.47596100      -0.96421700
C        4.01852400      -3.57588700       1.16271400
C        4.48333500      -3.44119100      -1.58590400
H        3.23480700      -1.68036100      -1.54855200
C        4.82076900      -4.53786600       0.54417300
H        3.82452700      -3.63375700       2.23164000
C        5.05487000      -4.47244700      -0.83378200
H        4.65673000      -3.38838100      -2.65771800
H        5.25344600      -5.34189500       1.13382700
H        5.67255300      -5.22399200      -1.31842000
C        3.53810600      -0.31164200       1.57934000
C        2.84077400       0.66160500       2.41575200
H        4.38057400      -0.74021600       2.13598000
H        3.95482700       0.17294900       0.68855100
C        2.24672800       1.44578600       3.11925800
H        1.73595800       2.13832400       3.75096400
Cl      -0.43743200      -2.42488000      -1.90745700
Cl       0.04104200      -3.24984500       1.10991400
O       -1.17220400      -0.74762600       0.91771900
O       -0.04493500       0.13712800      -1.23308900
C       -2.02864900       1.27329900       0.10757500
C       -0.66992600       1.83910900       0.21154000
C        1.48119800       1.89249700      -0.86518300
C       -3.43742700      -0.67957100       0.31901700
C       -4.57695300       0.03776800      -0.10689600
C       -3.11320500       2.02100500      -0.33997300
C       -4.35442700       1.37825300      -0.42608500
C       -0.34306000       2.95329000       0.97060300
C        0.92390000       3.51578600       0.77602300
C        1.85342900       3.05853100      -0.16031900
H       -5.18292800       1.97568500      -0.78161000
H        1.17062800       4.37527500       1.38519000
C        3.18419800       3.81235700      -0.37501900
Cl       2.41366300       1.13278100      -2.09129600
N       -2.22477200      -0.04700700       0.40884200
N        0.27729900       1.29551600      -0.61587600
Cl      -3.42181100      -2.33299400       0.76232200
C       -5.98921600      -0.57492900      -0.23492500
C       -5.99327200      -1.71868900      -1.27938400
C       -6.48851800      -1.07285500       1.14481500
C       -7.01121900       0.47492900      -0.72281300
H       -5.37165600      -2.56608700      -0.98898200
H       -7.02317500      -2.07603700      -1.38843100
H       -5.65255400      -1.34629800      -2.25186800
H       -7.51250900      -1.44222600       1.02244500
H       -5.88414100      -1.88414700       1.55182400
H       -6.50337600      -0.24622200       1.86427200
H       -7.98790700      -0.01378600      -0.78378700
H       -7.09828500       1.31674100      -0.02652700
H       -6.76204200       0.85593800      -1.71971900
C        4.40339300       2.89997000      -0.09402400
C        3.23410800       4.38406900      -1.81390000
C        3.30782100       5.00987700       0.59046200
H        4.36717500       2.52947100       0.93530200
H        4.47508500       2.05233500      -0.77633700
H        5.31090800       3.50193000      -0.21259200
H        3.22722200       3.60714200      -2.58002000
H        2.38524300       5.05604800      -1.98417500
H        4.15906100       4.96139400      -1.92173500
H        3.29442800       4.68682000       1.63782900
H        4.26765100       5.49874800       0.39915800
H        2.51525900       5.74950300       0.43055100
C       -3.00141000       3.46300700      -0.75503700
H       -3.31767100       4.11589400       0.06672900
H       -1.98209700       3.73457600      -1.03649400
H       -3.66711100       3.65016600      -1.60252800
C       -1.28528600       3.55543500       1.97591200
H       -0.74952900       3.72660600       2.91539800
H       -1.64709300       4.52737700       1.62213500
H       -2.14426400       2.91128100       2.17453600
