75
Properties=species:S:1:pos:R:3 pbc="F F F"
Si      -0.17900500      -1.78446300      -0.62365200
O        1.43599000      -1.77727300      -0.35014300
C        2.42661800      -2.00168800       0.67766400
C        2.21876600      -1.09663700       1.87569600
H        3.36242900      -1.71545400       0.18778500
C        1.08355900      -1.19914800       2.69255400
C        3.19404000      -0.14332500       2.18848500
C        0.92244700      -0.34732700       3.78701400
H        0.32390100      -1.94125700       2.47251000
C        3.04211900       0.70522300       3.28853200
H        4.07936400      -0.06728900       1.56534700
C        1.90135200       0.60635000       4.08927600
H        0.03614800      -0.43366700       4.40997900
H        3.80977100       1.44022900       3.51509400
H        1.77603000       1.26420400       4.94529600
C        2.56717300      -3.48450500       1.09276900
C        2.82053700      -4.37044100      -0.03965300
H        3.41082300      -3.52636100       1.79439500
H        1.67560800      -3.80753500       1.63723000
C        3.03384500      -5.08265600      -0.99365100
H        3.21557000      -5.72005600      -1.83116200
Cl      -0.99808400      -2.48733900      -2.43501400
Cl      -0.74149500      -3.59022500       0.50702800
O       -1.16807100      -0.85983400       0.54918300
O        0.01872100      -0.14472100      -1.63039400
C       -1.36624700       1.40721300       0.00600100
C        0.10645600       1.49991400       0.00084200
C        2.04740000       1.01017700      -1.33616300
C       -3.31454500      -0.01243700       0.17000900
C       -4.18495600       1.07189700      -0.07134100
C       -2.17642700       2.50636300      -0.26538800
C       -3.56130400       2.30392200      -0.28360100
C        0.84300500       2.36202100       0.79844200
C        2.19543700       2.53814500       0.47738800
C        2.83006000       1.93933700      -0.61361000
H       -4.17288400       3.16970800      -0.49995400
H        2.75925200       3.21375900       1.10629500
C        4.27960800       2.32350700      -0.98632200
Cl       2.57532900       0.10901300      -2.69840800
N       -1.95892200       0.19206500       0.20530500
N        0.74549500       0.79142600      -0.98333800
Cl      -3.80251500      -1.63268700       0.43466900
C       -5.72408100       0.95006500      -0.12530700
C       -6.15067400       0.01284400      -1.28291500
C       -6.27665000       0.45294800       1.23349600
C       -6.38272200       2.32008600      -0.39716100
H       -5.80972600      -1.01448200      -1.15066000
H       -7.24515400       0.00382600      -1.32757000
H       -5.76939900       0.39213000      -2.23759100
H       -7.37039400       0.44776900       1.17391200
H       -5.94826100      -0.55543500       1.48708500
H       -5.97858200       1.13580100       2.03697300
H       -7.46643100       2.17202100      -0.41796000
H       -6.15525600       3.04587000       0.39180200
H       -6.08028300       2.73375000      -1.36568200
C        5.23631200       1.10669600      -0.96398500
C        4.28169500       2.99542000      -2.38372400
C        4.85798800       3.35488300       0.00550300
H        5.32741200       0.70844800       0.05123800
H        4.93072800       0.30080100      -1.63106700
H        6.22724300       1.45153200      -1.27876600
H        3.97744000       2.31523800      -3.18073500
H        3.61730700       3.86696800      -2.38768500
H        5.30049000       3.33712000      -2.59760900
H        4.90277300       2.95748400       1.02591300
H        5.87839400       3.58962900      -0.31157100
H        4.28177200       4.28695500       0.00703600
C        0.25438200       3.07855400       1.98041700
H       -0.80622700       2.85822000       2.11498300
H        0.78882100       2.75784100       2.88134000
H        0.38770900       4.16057800       1.87795500
C       -1.61770300       3.87097200      -0.56573200
H       -2.31771900       4.42204300      -1.19890300
H       -1.48110800       4.44098300       0.36012500
H       -0.65055200       3.81212500      -1.07107200
