75
Properties=species:S:1:pos:R:3 pbc="F F F"
Si       0.30477000      -1.54275800       1.26010100
O       -0.42188600      -2.60333500       0.23105300
C       -0.36741900      -2.76400800      -1.21561100
C       -1.41714800      -1.89743000      -1.87452900
H        0.62178900      -2.48266400      -1.58084400
C       -2.78157800      -2.12916000      -1.65020400
C       -1.03339100      -0.85142400      -2.72249100
C       -3.74355500      -1.33639600      -2.27648200
H       -3.09073200      -2.93090900      -0.98550500
C       -1.99549300      -0.04552400      -3.33850300
H        0.02365600      -0.66767400      -2.89267300
C       -3.35400500      -0.28822000      -3.11773100
H       -4.79716400      -1.53615700      -2.10654100
H       -1.68388300       0.76619000      -3.99068500
H       -4.10581300       0.33395500      -3.59626400
C       -0.58163900      -4.26656800      -1.49897500
C        0.50555700      -5.09400000      -0.98017900
H       -0.66188800      -4.39192200      -2.58631400
H       -1.53835400      -4.58079200      -1.06465400
C        1.42431400      -5.75089300      -0.54744100
H        2.22758300      -6.33929300      -0.16102000
Cl      -0.54387700      -2.54360200       3.01494900
Cl       2.28428700      -1.64952600       2.01601400
O        0.92711000      -0.59353400      -0.30424300
O       -0.45004200      -0.00770700       1.80796100
C        1.06311400       1.64165900       0.23962500
C       -0.40966500       1.64162400       0.14719900
C       -2.50297600       0.79906100       1.00431500
C        3.03492700       0.43011500      -0.42302800
C        3.86541400       1.53449700      -0.12442900
C        1.82373100       2.75837300       0.55215100
C        3.21288300       2.65580100       0.39421700
C       -1.09236200       2.46831900      -0.73703500
C       -2.49025100       2.47091400      -0.67788100
C       -3.24392100       1.70170200       0.21006700
H        3.79850100       3.52284100       0.66978200
H       -3.00080300       3.13338900      -1.36424400
C       -4.77075700       1.91284800       0.33077400
Cl      -3.17889700      -0.33654400       2.09010800
N        1.69593500       0.49151900      -0.15016000
N       -1.13202400       0.79822000       0.94449900
Cl       3.53989500      -1.03142200      -1.17149400
C        5.39660900       1.53650500      -0.32131500
C        6.04763100       0.40387700       0.51059400
C        5.74919000       1.40264000      -1.82410700
C        6.02172900       2.86088600       0.16641100
H        5.73149400      -0.59214500       0.19862700
H        7.13398700       0.46978400       0.38582200
H        5.81317000       0.53179000       1.57325400
H        6.83677900       1.48485000      -1.92794000
H        5.44034200       0.44813600      -2.25174900
H        5.28645100       2.21499200      -2.39597000
H        7.10361800       2.79558600       0.01802300
H        5.65320600       3.72110000      -0.40388100
H        5.83661700       3.03015300       1.23330600
C       -5.58157600       0.63617000       0.00952200
C       -5.08789200       2.42541200       1.75957900
C       -5.26058300       2.99610700      -0.65395100
H       -5.41124900       0.33629000      -1.02696300
H       -5.34754900      -0.20533500       0.66092700
H       -6.64363300       0.87533900       0.13156700
H       -4.84748900       1.69629800       2.53527400
H       -4.53965900       3.35230400       1.96296100
H       -6.16085500       2.63934900       1.81473400
H       -5.08970100       2.70199000      -1.69584900
H       -6.33805300       3.11789400      -0.50909400
H       -4.78343800       3.96491500      -0.46932600
C       -0.38791300       3.35064600      -1.73115100
H       -0.28332900       4.36572100      -1.33128300
H        0.60743400       2.97624400      -1.98018000
H       -0.98462600       3.41374300      -2.64555900
C        1.21856700       4.03945000       1.05636700
H        1.72855700       4.34014500       1.97784700
H        1.36489600       4.84104800       0.32351700
H        0.15131700       3.94061100       1.26347900
