75
Properties=species:S:1:pos:R:3 pbc="F F F"
Si       0.25442100      -0.80211700       0.30540000
O        1.65479300      -1.61704200      -0.11409300
C        2.50145700      -2.50264700       0.61939100
C        3.74035400      -2.77318700      -0.20805500
H        2.79323700      -2.03252700       1.56547300
C        3.63416600      -3.14256600      -1.55645300
C        5.00558300      -2.69705700       0.38488900
C        4.78055500      -3.42795000      -2.30086100
H        2.65285000      -3.19293200      -2.02018300
C        6.15508200      -2.98778000      -0.35762400
H        5.08970100      -2.40674600       1.42995100
C        6.04422700      -3.35331800      -1.70243800
H        4.68986000      -3.70984900      -3.34682600
H        7.13329700      -2.92339600       0.11189000
H        6.93602700      -3.57613900      -2.28246300
C        1.76640300      -3.83471200       0.94125700
C        0.63556400      -3.63441700       1.84085400
H        2.49081200      -4.52052400       1.39773000
H        1.43112000      -4.28411800      -0.00128700
C       -0.28798200      -3.39463500       2.58569100
H       -1.09754000      -3.20101000       3.25414100
Cl       1.10617200      -0.00096600       2.16887300
Cl      -0.96255400      -2.17551600      -0.90905900
O        0.38359900       0.47359600      -0.90653600
O       -1.27083900      -0.07772700       1.08166800
C       -1.00349200       2.24927200      -0.32085200
C       -2.19055300       1.38617500      -0.47313000
C       -3.47828000      -0.47494200       0.39493700
C        1.41218100       2.50370800      -0.39084600
C        1.29643600       3.87140300      -0.03899800
C       -1.13479900       3.59042600      -0.01282000
C        0.00262100       4.37902700       0.13235500
C       -3.25640000       1.75887600      -1.26885200
C       -4.41475800       0.98719200      -1.26968300
C       -4.57214400      -0.12793400      -0.43721500
H       -2.12509500       4.00061400       0.14236100
H       -0.13989600       5.41797900       0.39695900
H       -3.16989100       2.64421800      -1.88689000
H       -5.21730200       1.28833700      -1.92881300
C       -5.89175500      -0.92616500      -0.44944400
C       -3.43103800      -1.54228300       1.44324300
N        0.26133900       1.76913700      -0.49546300
N       -2.32754800       0.25823600       0.28657500
C        2.65987600       1.73727800      -0.70090100
C        2.52446300       4.78301300       0.15683000
C        3.43345600       4.22711700       1.28415800
C        3.28427800       4.96024100      -1.18293000
C        2.11139200       6.20229200       0.60596300
H        3.81344600       3.22118800       1.10173300
H        4.29209200       4.89802500       1.39671300
H        2.88090500       4.21330300       2.23046500
H        4.16256500       5.59034400      -1.00390700
H        3.62279000       4.02629900      -1.63351600
H        2.63805500       5.46882800      -1.90737900
H        1.56885000       6.18322200       1.55767900
H        3.02246400       6.79202000       0.74612900
H        1.49695000       6.70613700      -0.14852800
C       -5.62405000      -2.41266100      -0.80064500
C       -6.63208500      -0.76488000       0.90345900
C       -6.86202400      -0.40255100      -1.53243700
H       -5.18488800      -2.48304300      -1.80217500
H       -4.95832600      -2.92461700      -0.10539000
H       -6.58205700      -2.94397400      -0.80620900
H       -6.42187800      -0.46448800      -2.53402400
H       -7.75866300      -1.02952500      -1.51591500
H       -7.17119400       0.63074200      -1.33918600
H       -6.06729900      -1.11656600       1.76822800
H       -6.87742200       0.29070800       1.06662000
H       -7.56844100      -1.33219700       0.85695800
H        2.58711700       1.31684400      -1.70983500
H        3.54162800       2.36110700      -0.63678400
H        2.76209000       0.89430400      -0.01086400
H       -2.68295200      -2.29499800       1.18102600
H       -3.12363900      -1.09475800       2.39461000
H       -4.39212000      -2.02320300       1.56992000
