75
Properties=species:S:1:pos:R:3 pbc="F F F"
Si      -0.15158000      -1.64369300      -0.75599200
O        1.44647800      -1.66717200      -0.37707100
C        2.32623100      -1.84944600       0.75875000
C        1.94538900      -0.95179200       1.91766700
H        3.29760100      -1.52105200       0.37576700
C        0.79733700      -1.18709800       2.68814800
C        2.75918000       0.14284300       2.23041800
C        0.45869000      -0.32303600       3.73088900
H        0.16208300      -2.03810500       2.46682200
C        2.42910500       1.00485500       3.27922600
H        3.65574700       0.32030900       1.64420600
C        1.27163100       0.77714800       4.02801500
H       -0.43661000      -0.51219600       4.31733300
H        3.07123200       1.85242200       3.50380500
H        1.00728200       1.44683500       4.84216100
C        2.47968600      -3.32774100       1.18208300
C        2.90220400      -4.19214200       0.08389400
H        3.23533100      -3.34284900       1.97872600
H        1.54449400      -3.69454000       1.61413100
C        3.25828200      -4.89023700      -0.83747400
H        3.56521700      -5.51561800      -1.64704900
Cl      -0.81749300      -2.34198000      -2.64032000
Cl      -0.77934800      -3.50583500       0.28159800
O       -1.22718300      -0.80025100       0.37589400
O        0.06613400      -0.01011800      -1.68395500
C       -1.40246700       1.51048700      -0.00145500
C        0.05550600       1.66455000      -0.07366500
C        2.05523000       1.18192100      -1.35009300
C       -3.35367800       0.06764800       0.05408800
C       -4.21311700       1.19032900      -0.02546600
C       -2.22955800       2.61828300      -0.06426500
C       -3.60954400       2.45403000      -0.06424800
C        0.73269700       2.63702500       0.63656900
C        2.07688600       2.86558100       0.36923400
C        2.76867500       2.17634800      -0.63485700
H       -1.78190200       3.60122100      -0.14671800
H       -4.22027000       3.34494400      -0.11643100
H        0.20642500       3.20225400       1.39593500
H        2.58347200       3.61460400       0.96225800
C        4.24133500       2.52166300      -0.93935700
C        2.54304500       0.35767200      -2.50022700
N       -1.99941500       0.28723700       0.08305600
N        0.75094900       0.94531300      -1.00333900
C       -3.74166400      -1.37453600       0.13968800
C       -5.74996800       1.06281400      -0.05836500
C       -6.19934100       0.29823700      -1.32975400
C       -6.26777700       0.39844600       1.24393500
C       -6.43233600       2.44760500      -0.12709200
H       -5.78876900      -0.70876800      -1.41385700
H       -7.29192300       0.21979700      -1.32012700
H       -5.90222300       0.85951100      -2.22282600
H       -7.35986700       0.33090300       1.18775600
H       -5.87729300      -0.60388800       1.42336200
H       -6.00664100       1.02357000       2.10541100
H       -6.15457800       2.99434900      -1.03523100
H       -7.51506000       2.29056600      -0.14538300
H       -6.19488400       3.06138300       0.74916800
C        5.15942700       1.28000000      -0.79555000
C        4.34506100       3.16041400      -2.34945900
C        4.79555400       3.57250400       0.04855100
H        5.21157300       0.97411600       0.25496800
H        4.84674700       0.41516000      -1.38109300
H        6.16969300       1.55950500      -1.11385400
H        4.74172900       3.22138400       1.08537100
H        5.84746700       3.74826200      -0.19655700
H        4.26614000       4.52794700      -0.03470300
H        3.99253100       2.51636700      -3.15637500
H        3.76184500       4.08777300      -2.37785600
H        5.39477300       3.40677100      -2.54452200
H       -3.39658400      -1.79776000       1.08907900
H       -4.81171500      -1.50987600       0.05320500
H       -3.24321300      -1.94106800      -0.65336200
H        3.52645400       0.66725500      -2.83008900
H        2.56972400      -0.69730700      -2.21396500
H        1.83799200       0.44661900      -3.33323100
