75
Properties=species:S:1:pos:R:3 pbc="F F F"
Si       0.09954900      -1.13473500      -0.34935100
O        1.63034100      -0.64557100       0.00779000
C        2.75331500      -1.10840600       0.78965700
C        3.25007700      -2.47092800       0.32791100
H        3.53267200      -0.37382100       0.55022800
C        3.39396700      -2.69039200      -1.05068000
C        3.61099900      -3.49252800       1.21386700
C        3.86932900      -3.90949200      -1.53434200
H        3.11376600      -1.90754300      -1.74970300
C        4.09362300      -4.71378500       0.73197600
H        3.50452400      -3.35698100       2.28488800
C        4.22199600      -4.92820600      -0.64223500
H        3.96505900      -4.06414700      -2.60595400
H        4.36121200      -5.49880500       1.43442000
H        4.59205400      -5.87925900      -1.01594400
C        2.46786500      -0.98538800       2.30027200
C        2.07586500       0.36647900       2.69131600
H        3.38442900      -1.25916100       2.83730800
H        1.69165000      -1.70292700       2.58687000
C        1.76406400       1.48767000       3.02008700
H        1.48954700       2.47428800       3.31977500
Cl      -0.45485700      -2.07772900      -2.16242300
Cl       0.05297900      -3.01484800       0.81383100
O       -1.16350400      -0.54125300       0.75791300
O       -0.11807000       0.45368400      -1.35401600
C       -2.07092300       1.53348700       0.14873100
C       -0.73342900       2.13789900       0.11923800
C        1.42524300       2.18076200      -0.96966000
C       -3.44993300      -0.45535600       0.32645800
C       -4.61733000       0.30716400       0.07695800
C       -3.20433400       2.29779300      -0.06102400
C       -4.45324800       1.68793900      -0.09223300
C       -0.43032900       3.30841800       0.78890800
C        0.83123000       3.87143600       0.63644400
C        1.79137100       3.33125400      -0.22911000
H       -3.09592500       3.36126600      -0.23579500
H       -5.31331000       2.31796500      -0.27412300
H       -1.16900900       3.74903100       1.44730100
H        1.05971900       4.75610000       1.21523600
C        3.19184500       3.97039800      -0.33074300
C        2.19716900       1.53366500      -2.07689700
N       -2.24319200       0.19643500       0.35457000
N        0.21361700       1.60071400      -0.70267600
C       -3.36083600      -1.92337800       0.59545400
C       -6.02213900      -0.32418500      -0.00480800
C       -6.08242500      -1.35415300      -1.16312800
C       -6.41934800      -0.94725000       1.35849800
C       -7.10200300       0.73484100      -0.32013800
H       -5.36460600      -2.17027500      -1.07517100
H       -7.08802800      -1.78821400      -1.18937300
H       -5.90156100      -0.84707100      -2.11770300
H       -7.42283700      -1.37659700       1.26340500
H       -5.74756500      -1.73379800       1.70537700
H       -6.45072700      -0.16647400       2.12700500
H       -6.91727500       1.23015500      -1.27976100
H       -8.06787200       0.22466800      -0.38273400
H       -7.17102200       1.49246700       0.46838700
C        4.29111000       2.90261900      -0.09383400
C        3.36647300       4.69296600      -1.69018300
C        3.39851700       5.04420800       0.76177300
H        4.14778300       2.43386000       0.88604600
H        4.31478600       2.11763700      -0.84971200
H        5.26589900       3.40255200      -0.10024900
H        3.25244900       4.62942000       1.76552300
H        4.42696300       5.41046900       0.68786500
H        2.72916000       5.90065700       0.62507300
H        3.25888500       4.03885000      -2.55741400
H        2.62894900       5.49851400      -1.77998400
H        4.36760100       5.13740900      -1.72313000
H       -2.90521700      -2.09302300       1.57642400
H       -4.33146800      -2.39995900       0.56220400
H       -2.70330000      -2.39770500      -0.13979200
H        2.59978000       0.57328200      -1.74877500
H        1.52269400       1.33212700      -2.91453900
H        3.00860300       2.16691300      -2.41445100
