75
Properties=species:S:1:pos:R:3 pbc="F F F"
Si      -0.35330700       1.12572300       1.36682200
O        0.40214500       2.30620400       0.50655100
C        0.49331700       2.63232000      -0.90224300
C        1.87476700       2.28039600      -1.40275200
H       -0.25377000       2.07939000      -1.47279700
C        3.01636700       2.78482400      -0.76269000
C        2.02473600       1.46305200      -2.52865000
C        4.28860900       2.48172600      -1.24963300
H        2.90427900       3.40742900       0.12080800
C        3.29907500       1.16278400      -3.02154600
H        1.14001000       1.06598300      -3.02158200
C        4.43210900       1.67493300      -2.38439600
H        5.16816200       2.87465200      -0.74649800
H        3.40581800       0.52854500      -3.89774700
H        5.42311900       1.43846100      -2.76174300
C        0.19366200       4.14225800      -1.03831900
C       -1.18043500       4.46787800      -0.66239800
H        0.37729400       4.43056200      -2.08119600
H        0.90423400       4.69969200      -0.41567400
C       -2.32731900       4.69224700      -0.35018900
H       -3.33475100       4.90478100      -0.06644100
Cl       0.48835300       1.90746500       3.25643600
Cl      -2.34533100       1.22108900       2.10467700
O       -0.91385300       0.33749400      -0.26877500
O        0.39381700      -0.42867600       1.78584500
C       -1.26799300      -1.92562400       0.09833100
C        0.18950700      -2.09522400       0.15077100
C        2.35910700      -1.27770600       0.86627600
C       -3.07096000      -0.47763500      -0.62282400
C       -3.99578200      -1.54366800      -0.50318900
C       -2.14709500      -2.98900400       0.18606600
C       -3.49802900      -2.78162500      -0.07217100
C        0.80859100      -3.08864700      -0.58638200
C        2.19531800      -3.18886800      -0.58299000
C        3.00927700      -2.29294600       0.12169400
H       -1.76797000      -3.96579600       0.46161000
H       -4.16759700      -3.62314500       0.04298600
H        0.19850400      -3.75897400      -1.17956200
H        2.64161000      -3.98302300      -1.16579200
C        4.54351200      -2.44844700       0.09120000
C        2.99350700      -0.20725200       1.69529900
N       -1.77450100      -0.70134900      -0.23695700
N        0.98743400      -1.25527800       0.86856200
C       -3.30806200       0.88511300      -1.19804800
C       -5.49544300      -1.37632100      -0.81952700
C       -6.10535500      -0.23993900       0.04119100
C       -5.70389800      -1.14146800      -2.33811600
C       -6.29560400      -2.65089600      -0.46796600
H       -5.65031300       0.73792900      -0.11932300
H       -7.17197400      -0.16006100      -0.19590800
H       -6.00609100      -0.48867900       1.10372900
H       -6.77556900      -1.01301900      -2.52685100
H       -5.18364800      -0.26591100      -2.72940800
H       -5.35770400      -2.01783900      -2.89792100
H       -6.19989300      -2.90809000       0.59291500
H       -7.35186900      -2.45657100      -0.67746600
H       -5.98504800      -3.50804700      -1.07541100
C        5.20141700      -1.20773100      -0.56132100
C        5.08422100      -2.72230200       1.51903400
C        4.97292500      -3.66060200      -0.76567500
H        4.88085100      -1.12504500      -1.60469500
H        4.96385500      -0.26220500      -0.07392800
H        6.28892600      -1.33979500      -0.54160000
H        4.66107400      -3.55012100      -1.81024600
H        6.06522500      -3.71998800      -0.74435500
H        4.57466500      -4.60114400      -0.36881900
H        4.87235800      -1.93042100       2.23845100
H        4.65600000      -3.65442000       1.90530200
H        6.17148700      -2.84291700       1.45910800
H       -2.61613800       1.03369900      -2.03504200
H       -4.32319100       0.99920600      -1.55550600
H       -3.09473900       1.66607100      -0.46516900
H        4.07333400      -0.23975000       1.63552400
H        2.65157900       0.77490800       1.35278100
H        2.68109700      -0.30544000       2.73982000
