75
Properties=species:S:1:pos:R:3 pbc="F F F"
Si      -0.02758200       0.89999500       0.93920400
O        0.51612500       1.87409700      -0.27807900
C        0.37881900       3.31132100      -0.38694800
C       -1.07885000       3.68403900      -0.54716300
H        0.78455100       3.78255300       0.51339600
C       -1.84717700       3.11348100      -1.57228800
C       -1.67841400       4.58045700       0.34366500
C       -3.19895500       3.43392800      -1.70132800
H       -1.38678400       2.40402000      -2.25391600
C       -3.03236600       4.90643800       0.21397400
H       -1.08604500       5.01032100       1.14769900
C       -3.79468500       4.33233600      -0.80729400
H       -3.78941500       2.98297500      -2.49475200
H       -3.49164000       5.59948700       0.91380700
H       -4.84846800       4.57956600      -0.90549100
C        1.22082600       3.74655700      -1.60520700
C        2.64984900       3.48840100      -1.43997300
H        1.05366600       4.82040900      -1.75661700
H        0.84180700       3.23073600      -2.49632100
C        3.83147500       3.28197800      -1.28352500
H        4.87773700       3.11195500      -1.15608300
Cl      -1.96049900       0.80310000       1.80639600
Cl       0.73466600       2.12626300       2.64189500
O       -0.55878500      -0.21528300      -0.51493800
O        1.03134100      -0.38918500       1.50641800
C       -0.33711400      -2.42234200       0.19459200
C        1.11921300      -2.25595200       0.10331500
C        3.07978900      -0.87896800       0.49570900
C       -2.48034600      -1.54588500      -0.50792300
C       -3.11255100      -2.76146700      -0.14544900
C       -0.92753500      -3.62665900       0.52780300
C       -2.30471200      -3.77028000       0.39699800
C        1.89535500      -3.16658900      -0.58943800
C        3.25692400      -2.93065000      -0.74744800
C        3.88300200      -1.78414300      -0.24217200
H       -0.30711900      -4.43761500       0.89080800
H       -2.74311400      -4.71032300       0.70215500
H        1.41887700      -4.03169200      -1.03455100
H        3.82926500      -3.65844700      -1.30604000
C        5.38718100      -1.54829300      -0.48827400
C        3.50710600       0.38915800       1.16248200
N       -1.14221400      -1.40629200      -0.24029200
N        1.74842400      -1.17367400       0.63917900
C       -3.08317100      -0.38144400      -1.23170900
C       -4.62664900      -2.99513100      -0.32784900
C       -5.43967000      -1.90638700       0.41888500
C       -4.98150500      -3.06352300      -1.83588400
C       -5.07036400      -4.34583300       0.27817100
H       -5.24260100      -0.88861000       0.08109200
H       -6.50645700      -2.11017100       0.27460000
H       -5.22230000      -1.95471400       1.49187800
H       -6.06148800      -3.22154200      -1.93246800
H       -4.71868700      -2.16585900      -2.39767100
H       -4.46664900      -3.91367900      -2.29789000
H       -4.84663800      -4.40146000       1.34942800
H       -6.15369800      -4.43506100       0.15130900
H       -4.60183100      -5.19492300      -0.23170700
C        5.60498400      -0.22811100      -1.27085000
C        6.16441100      -1.57502200       0.85325800
C        6.00315200      -2.66528000      -1.36042100
H        5.12614000      -0.29700100      -2.25420200
H        5.21362500       0.65718800      -0.77034800
H        6.68117500      -0.08767500      -1.42039400
H        5.52371200      -2.72114900      -2.34408300
H        7.06145100      -2.43210200      -1.51219800
H        5.94105000      -3.64475600      -0.87323200
H        5.82519700      -0.83906900       1.58313200
H        6.07686400      -2.56722900       1.31030900
H        7.22290000      -1.38400700       0.64492400
H       -2.49668700      -0.19260400      -2.13794300
H       -4.11269200      -0.56976000      -1.50736800
H       -3.03339500       0.52641000      -0.62801800
H        2.98249200       1.23699600       0.70612900
H        3.22632200       0.37137000       2.21959200
H        4.57317000       0.55226500       1.07555300
