75
Properties=species:S:1:pos:R:3 pbc="F F F"
Si       0.06878300       0.86602500       1.11945700
O       -0.37419000       1.99702700       0.01984300
C        0.33815300       2.53241000      -1.12248300
C        1.26509500       3.64948300      -0.69731400
H        0.91640700       1.74214000      -1.60446700
C        0.87288400       4.58787900       0.26613400
C        2.51868600       3.77113600      -1.30863400
C        1.72863600       5.63523900       0.61462700
H       -0.09132000       4.48206200       0.75396400
C        3.37365100       4.82223400      -0.96448000
H        2.82766400       3.03626400      -2.04818600
C        2.97960800       5.75650300      -0.00148000
H        1.42101600       6.35571100       1.36806100
H        4.34730000       4.90561300      -1.44030100
H        3.64550800       6.57071800       0.27222900
C       -0.73311300       3.03674700      -2.11557500
C       -1.51371800       1.95190100      -2.70652300
H       -0.21953600       3.59419900      -2.90874500
H       -1.38563700       3.74525100      -1.58973500
C       -2.12478300       1.03370700      -3.20331400
H       -2.66575000       0.23598200      -3.66085200
Cl       2.00862000       0.55776700       1.88789600
Cl      -0.61942900       1.95609500       2.86353100
O       -1.07093200      -0.44083700       1.54732000
O        0.54206600      -0.26141400      -0.45990000
C       -1.19845600      -2.22483900       0.05085300
C        0.24833800      -2.45905500       0.15874000
C        2.43102300      -1.65515100      -0.43879400
C       -3.14085900      -0.87557200       0.50958900
C       -3.89076100      -1.54255800      -0.48630100
C       -1.98228200      -3.06078900      -0.73095600
C       -3.28681800      -2.70054200      -1.01411700
C        0.79592800      -3.68659800       0.49831100
C        2.17433700      -3.81734300       0.53854900
C        3.04977300      -2.79604600       0.11582500
H       -1.53014200      -3.93274800      -1.18788200
H       -3.84189100      -3.32758400      -1.69716200
H        0.14276700      -4.50019600       0.79058000
H        2.58113700      -4.74936500       0.90469600
C        4.56748400      -2.98378000       0.37240400
C        3.06874100      -0.66252500      -1.44508500
N       -1.80236400      -1.17158900       0.65704900
N        1.08128200      -1.46295500      -0.24481000
C       -3.71392000       0.09817400       1.57374500
C       -5.24900400      -1.09478700      -1.09566300
C       -6.44247200      -1.74181800      -0.35140300
C       -5.36514100       0.44781700      -1.18806000
C       -5.33161300      -1.59963900      -2.56701300
H       -7.36135500      -1.47446400      -0.88479500
H       -6.34321800      -2.83345500      -0.36868200
H       -6.53661100      -1.41482900       0.68312200
H       -4.48714500       0.86520600      -1.69322200
H       -6.24722200       0.68162800      -1.79256000
H       -5.49195400       0.94668300      -0.23139300
H       -5.48297100      -2.68105300      -2.63527900
H       -6.20329000      -1.12670200      -3.02788600
H       -4.44420000      -1.32381200      -3.14558300
F       -3.43003100       1.37984700       1.27342900
F       -3.24488900      -0.18776900       2.80401200
F       -5.05165400      -0.03145800       1.67029100
F        2.19328300      -0.36266100      -2.43549100
F        4.11596700      -1.25205400      -2.06339300
F        3.49178600       0.49029200      -0.89937400
C        5.22083900      -3.80830900      -0.76103400
C        5.30843800      -1.64471600       0.60353200
C        4.74744800      -3.78912200       1.69343100
H        4.71933100      -4.77726300      -0.86403200
H        5.19286700      -3.29391900      -1.72240500
H        6.26786700      -3.99080500      -0.49432700
H        5.44348200      -1.05160200      -0.29732400
H        4.78836700      -1.04041900       1.35443200
H        6.30687900      -1.87500400       0.98791000
H        4.44929400      -4.83675900       1.59623900
H        5.81285000      -3.78318300       1.94164100
H        4.19543900      -3.33075500       2.52118600
