81
Properties=species:S:1:pos:R:3 pbc="F F F"
Si      -0.08334900       1.04063900       0.80137100
O        0.47104000       1.92617500      -0.47154700
C        0.62896900       3.36565400      -0.56556500
C       -0.68152700       4.08078200      -0.31711700
H        1.37638100       3.68825100       0.16498000
C       -1.83793700       3.69515600      -1.00874600
C       -0.74482900       5.14242700       0.59156100
C       -3.04493200       4.36004000      -0.78845200
H       -1.79489600       2.86259700      -1.70433800
C       -1.95109200       5.81509800       0.80803300
H        0.14929300       5.43226200       1.13765900
C       -3.10372300       5.42325000       0.11993900
H       -3.93929600       4.04702700      -1.32073900
H       -1.99278900       6.63536300       1.51981900
H       -4.04405800       5.93978600       0.29393700
C        1.13513800       3.66218600      -1.99482200
C        2.44180200       3.09228200      -2.31432000
H        1.17730500       4.75342200      -2.10338100
H        0.38355200       3.29786700      -2.70634000
C        3.52794500       2.64588300      -2.60478900
H        4.48874100       2.26111200      -2.86532300
Cl      -2.04903600       0.98389300       1.57026800
Cl       0.66671200       2.26579300       2.45427400
O       -0.62258700      -0.13699600      -0.68963000
O        0.87034300      -0.32863000       1.44838300
C       -0.50452600      -2.27649100       0.16286100
C        0.95669500      -2.14213300      -0.00591300
C        2.96405200      -0.93551500       0.57038000
C       -2.61119600      -1.37262700      -0.56177200
C       -3.32105600      -2.37669700       0.13306700
C       -1.13735900      -3.38749900       0.71363000
C       -2.53246200      -3.36754700       0.74022000
C        1.68506100      -2.97936700      -0.85726400
C        3.01583700      -2.64093200      -1.08649400
C        3.68900500      -1.58597200      -0.44893300
H       -3.01842400      -4.18217800       1.25989800
H        3.54928200      -3.23626700      -1.81568300
C        5.10797900      -1.22640000      -0.96819000
C        3.59692000      -0.15233600       1.74836400
N       -1.25677000      -1.27709400      -0.37062500
N        1.60909100      -1.14594100       0.64192700
C       -3.15811100      -0.45353200      -1.68271400
C       -4.85688300      -2.42200500       0.36153100
C       -5.50167900      -1.01446800       0.38520700
C       -5.53481900      -3.33872800      -0.68295200
C       -5.14028300      -3.02892000       1.76586500
H       -6.52420800      -1.11808900       0.76144700
H       -4.95601500      -0.35050300       1.06419000
H       -5.56968600      -0.54509400      -0.59246000
H       -5.11090200      -4.34815500      -0.63265700
H       -6.60299000      -3.40210900      -0.44663200
H       -5.42726100      -2.96323600      -1.70139000
H       -4.57715800      -2.50828600       2.54811100
H       -6.20851300      -2.90954200       1.97012100
H       -4.92417300      -4.09996700       1.81816900
F       -2.24828300      -0.30224700      -2.67272400
F       -3.52905300       0.76926900      -1.26561400
F       -4.22455300      -1.04671500      -2.27002800
F        2.92779300      -0.33718900       2.90185100
F        3.68742800       1.16771000       1.50990000
F        4.83837200      -0.64445200       1.97832900
C        5.54066700       0.23074700      -0.67948400
C        6.14074100      -2.23143200      -0.41027900
C        5.09056400      -1.35770700      -2.52209300
H        4.72814400       0.93170200      -0.88901500
H        5.89110900       0.38677800       0.33793400
H        6.37506000       0.47448800      -1.34386800
H        6.22625200      -2.16131600       0.67650900
H        5.86459600      -3.25744500      -0.67912600
H        7.11820100      -2.01017800      -0.85309600
H        4.29187900      -0.75119600      -2.96236100
H        6.05125800      -0.99166000      -2.89620400
H        4.98817000      -2.39010000      -2.86651500
C       -0.37495500      -4.52486800       1.33233100
H       -0.41020200      -5.40115100       0.67485900
H        0.67077000      -4.26827900       1.51713000
H       -0.84154400      -4.80511900       2.28145600
C        1.06002500      -4.14184100      -1.57544500
H        1.56868800      -4.30663800      -2.52834600
H        1.16914600      -5.05132100      -0.97300900
H       -0.00545700      -3.98588100      -1.76019200
