81
Properties=species:S:1:pos:R:3 pbc="F F F"
Si       0.18481700       1.18875200       1.02984300
O       -0.85091300       1.77838200      -0.09697500
C       -1.87759200       2.78578300      -0.08774600
C       -3.06632900       2.29650900      -0.88761000
H       -2.18343200       3.00285100       0.93892000
C       -2.89184600       1.60066700      -2.09177100
C       -4.35908200       2.63698600      -0.47270800
C       -3.99835400       1.25705100      -2.87175800
H       -1.88960200       1.33430800      -2.41450400
C       -5.46610700       2.29912700      -1.25658600
H       -4.49682400       3.16927500       0.46563500
C       -5.28726000       1.61053600      -2.45944900
H       -3.85478200       0.71695500      -3.80375200
H       -6.46558200       2.56485000      -0.92295500
H       -6.14703900       1.34121900      -3.06685000
C       -1.31182800       4.07502200      -0.73566700
C       -0.19056800       4.64813100       0.00248200
H       -2.13175500       4.80118200      -0.80196900
H       -1.00729100       3.83391000      -1.76217700
C        0.73974600       5.09887900       0.62948300
H        1.56278500       5.48941000       1.18644200
Cl       2.12766400       1.82948900       1.58597800
Cl      -0.70441700       1.98530300       2.85830300
O       -0.14327600      -0.47973900       1.61160900
O        0.94875000       0.38268300      -0.58685600
C        0.14350700      -2.01670100      -0.10555900
C        1.59162500      -1.72993100      -0.03378700
C        3.27081300      -0.10075900      -0.62944500
C       -2.05520900      -1.58965000       0.79342200
C       -2.66364300      -2.29435800      -0.26688100
C       -0.39292800      -2.89899300      -1.04704500
C       -1.78038900      -2.97092600      -1.12544400
C        2.55514300      -2.66552100       0.30164700
C        3.88523900      -2.24616600       0.23420300
C        4.30704800      -0.99017000      -0.22013000
H       -2.18730600      -3.58524900      -1.91695100
H        4.62278100      -2.97030700       0.54707700
C        5.82773000      -0.66012100      -0.10136200
C        3.51705700       1.17400300      -1.48801900
N       -0.69811200      -1.38154000       0.74635000
N        1.96783800      -0.47737100      -0.42759200
C       -2.75608400      -1.15384800       2.10514100
C       -4.17803000      -2.34047100      -0.61031000
C       -4.82589600      -3.62086500      -0.03321800
C       -4.94025900      -1.06835600      -0.16944300
C       -4.33066800      -2.40427200      -2.15956500
H       -5.86715000      -3.66119200      -0.37225900
H       -4.30919100      -4.51199700      -0.40735700
H       -4.81590400      -3.63936500       1.05742200
H       -4.39800200      -0.16513100      -0.46014600
H       -5.90411700      -1.05578300      -0.68573200
H       -5.15122900      -1.03436400       0.89588900
H       -4.03281500      -3.37009100      -2.57771200
H       -5.39117000      -2.27183600      -2.39225400
H       -3.76807600      -1.60404300      -2.64985700
F       -3.20574500       0.11327600       2.04772500
F       -1.95125800      -1.27929900       3.17793600
F       -3.80209500      -1.97573300       2.35184200
F        2.44577100       1.90847600      -1.80324700
F        4.04071800       0.74076500      -2.67141800
F        4.40011600       2.01492500      -0.91102700
C        6.49041300      -0.12998500      -1.39639500
C        5.99801800       0.34105200       1.07357400
C        6.64479200      -1.91850300       0.29330000
H        6.27700100      -0.79299400      -2.24092400
H        6.20152800       0.88335400      -1.65818600
H        7.57294400      -0.12262100      -1.23396500
H        5.46325500       1.27697600       0.92084500
H        5.64546000      -0.11304100       2.00656200
H        7.06597900       0.56235100       1.18017200
H        6.55375100      -2.71742100      -0.45135200
H        7.69641600      -1.62368300       0.34826400
H        6.36767900      -2.30418600       1.27994100
C        0.47256000      -3.66998600      -2.00357700
H       -0.10594200      -3.95023600      -2.88691000
H        1.34509700      -3.08964100      -2.31641300
H        0.83356300      -4.58874300      -1.52735000
C        2.22327300      -4.05406800       0.76969100
H        2.57650100      -4.78834300       0.03669900
H        2.74565800      -4.25349000       1.71137500
H        1.15268500      -4.19736600       0.92711100
