81
Properties=species:S:1:pos:R:3 pbc="F F F"
Si       0.08327500       1.04063100       0.80151400
O       -0.47126100       1.92607900      -0.47141600
C       -0.62920600       3.36558200      -0.56539000
C        0.68133200       4.08072200      -0.31718200
H       -1.37651400       3.68817200       0.16526100
C        1.83763900       3.69505200      -1.00895900
C        0.74478400       5.14239400       0.59146000
C        3.04468000       4.35991400      -0.78885400
H        1.79447500       2.86246500      -1.70450800
C        1.95109400       5.81504400       0.80774000
H       -0.14924800       5.43224600       1.13769100
C        3.10361900       5.42315000       0.11949400
H        3.93896300       4.04684600      -1.32124700
H        1.99291700       6.63533100       1.51949400
H        4.04398700       5.93967900       0.29333900
C       -1.13556000       3.66212200      -1.99454400
C       -2.44238600       3.09242900      -2.31376200
H       -1.17758000       4.75335900      -2.10314800
H       -0.38417900       3.29766100      -2.70620600
C       -3.52867300       2.64627100      -2.60406900
H       -4.48949000       2.26147000      -2.86448200
Cl       2.04899200       0.98412000       1.57034100
Cl      -0.66677600       2.26576100       2.45444600
O       -0.87035700      -0.32871400       1.44845700
O        0.62263200      -0.13690700      -0.68955200
C       -0.95655400      -2.14211900      -0.00597200
C        0.50467200      -2.27642100       0.16285800
C        2.61130600      -1.37245700      -0.56172800
C       -2.96399800      -0.93564200       0.57032800
C       -3.68888300      -1.58607300      -0.44906400
C       -1.68484000      -2.97932400      -0.85740500
C       -3.01563100      -2.64095100      -1.08666100
C        1.13753800      -3.38741000       0.71363600
C        2.53264100      -3.36738500       0.74026300
C        3.32119900      -2.37649200       0.13312200
H       -3.54901100      -3.23628000      -1.81590300
H        3.01863500      -4.18200900       1.25993000
C        4.85703500      -2.42176900       0.36157700
C        3.15817300      -0.45345100      -1.68275800
N       -1.60902800      -1.14599200       0.64190400
N        1.25687200      -1.27698200      -0.37058500
C       -3.59691700      -0.15259400       1.74837200
C       -5.10788700      -1.22659400      -0.96832200
C       -6.14054700      -2.23176100      -0.41045500
C       -5.54065800       0.23052400      -0.67955800
C       -5.09050400      -1.35783500      -2.52222900
H       -7.11805600      -2.01051200      -0.85316600
H       -5.86433700      -3.25771100      -0.67948200
H       -6.22597900      -2.16181600       0.67635000
H       -4.72811000       0.93150500      -0.88889400
H       -6.37495200       0.47434200      -1.34403600
H       -5.89124900       0.38646600       0.33782300
H       -4.98783800      -2.39018000      -2.86670700
H       -6.05131900      -0.99203900      -2.89627800
H       -4.29201400      -0.75106800      -2.96250000
F       -3.68733800       1.16748600       1.51008200
F       -2.92784700      -0.33762500       2.90187800
F       -4.83838400      -0.64468900       1.97823200
F        2.24826200      -0.30222900      -2.67272700
F        4.22455600      -1.04668200      -2.27009700
F        3.52913900       0.76937700      -1.26577200
C        5.53494800      -3.33860100      -0.68282600
C        5.50184400      -1.01424400       0.38505300
C        5.14043600      -3.02849000       1.76599300
H        5.11098700      -4.34800600      -0.63248700
H        5.42741700      -2.96314300      -1.70128400
H        6.60311200      -3.40201600      -0.44649000
H        5.56981600      -0.54500000      -0.59267600
H        4.95622400      -0.35018900       1.06397800
H        6.52438200      -1.11785000       0.76127000
H        4.92433300      -4.09953000       1.81845500
H        6.20866600      -2.90907200       1.97023400
H        4.57730300      -2.50774800       2.54816200
C       -1.05974500      -4.14172900      -1.57564600
H       -1.56829100      -4.30639100      -2.52863400
H        0.00576200      -3.98579900      -1.76025300
H       -1.16900000      -5.05127900      -0.97333400
C        0.37515100      -4.52483100       1.33224700
H        0.41011700      -5.40094300       0.67453200
H        0.84192800      -4.80539600       2.28118600
H       -0.67050200      -4.26815400       1.51735100
