87
Properties=species:S:1:pos:R:3 pbc="F F F"
Si      -0.14064800      -1.71568000      -0.38069100
O        1.39374300      -1.48945700       0.18359000
C        2.06767700      -1.82817100       1.41770600
C        2.00943700      -0.62031200       2.33816800
H        1.54342400      -2.66022300       1.89436400
C        3.10156600       0.22166300       2.57677200
C        0.78198100      -0.32391900       2.95158400
C        2.97028200       1.34096000       3.40486400
H        4.06413700       0.01218700       2.12265900
C        0.64422100       0.79867000       3.76914400
H       -0.06705600      -0.98104800       2.78570000
C        1.74061200       1.63755200       3.99718700
H        3.82980000       1.98135700       3.58347600
H       -0.31420000       1.01402800       4.23443800
H        1.63888200       2.50969400       4.63739900
C        3.49029000      -2.28954800       1.05599200
C        3.49339400      -3.51665900       0.26416300
H        4.04605600      -2.44533700       1.98922300
H        4.00303200      -1.49301400       0.50298400
C        3.47881900      -4.53145200      -0.39267300
H        3.46505800      -5.42819000      -0.97260900
Cl      -0.58913100      -2.79342600      -2.14761200
Cl      -0.68048400      -3.42018800       0.94671700
O       -1.44252000      -0.85906900       0.47096800
O        0.09932000      -0.25980200      -1.53909100
C       -1.39204000       1.43679100      -0.05382300
C        0.07890600       1.50727400      -0.05339400
C        2.07600400       1.01577000      -1.32812100
C       -3.48229400       0.20899200       0.08125600
C       -4.21016000       1.40365600      -0.18500600
C       -2.09496500       2.61047400      -0.25398100
C       -3.47927900       2.58707600      -0.32875900
C        0.75975900       2.45116700       0.68840800
C        2.11913300       2.62488900       0.47124300
C        2.80531000       1.95541600      -0.55159300
H       -1.54322800       3.53267400      -0.38960600
H       -3.98396200       3.52421900      -0.51536000
H        0.22808500       3.02731600       1.43445600
H        2.63575100       3.33151100       1.10339600
C        4.30107000       2.27847300      -0.78895900
C        2.58053600       0.36732700      -2.60631200
N       -2.10641200       0.28223600       0.10060500
N        0.77615300       0.77549500      -0.96540400
C       -4.14220400      -1.11778000       0.40222300
C       -5.75353600       1.45650500      -0.32007700
C       -6.23458400       0.52934000      -1.46878600
C       -6.44051600       1.14192800       1.03638600
C       -6.24160400       2.87304400      -0.70758000
H       -5.97714500      -0.52298000      -1.34469200
H       -7.32518100       0.60367300      -1.53782100
H       -5.80694500       0.87025700      -2.41852000
H       -7.52561000       1.19979000       0.89609200
H       -6.20599500       0.15954000       1.44823600
H       -6.14966700       1.89525800       1.77723000
H       -5.81407900       3.20421600      -1.66050600
H       -7.32910900       2.83307700      -0.82027300
H       -6.01271000       3.61263500       0.06762600
C        4.87395200       3.16685600       0.34075000
C        5.17592200       0.99806600      -0.78509800
C        4.46707300       3.09666700      -2.09753400
H        4.75207000       2.69885700       1.32316300
H        5.94403300       3.30126000       0.15647900
H        4.41189100       4.15986300       0.35652800
H        3.91910500       4.04199500      -2.01315700
H        5.53010900       3.32560700      -2.23401700
H        4.11449900       2.58229300      -2.99366900
H        5.12780600       0.52088300       0.19965300
H        4.90435400       0.25475700      -1.53373700
H        6.21554100       1.29196800      -0.96572500
C       -3.91812600      -1.56979500       1.86389300
H       -5.20200300      -0.91796300       0.33158100
C       -3.87463500      -2.23651300      -0.62549500
H       -4.60860200      -2.39682400       2.06281600
H       -2.90029900      -1.91766400       2.03824300
H       -4.14985600      -0.75582200       2.56009200
H       -4.65758900      -2.99301200      -0.50374300
H       -3.92388400      -1.85317700      -1.64995200
H       -2.91276800      -2.71927000      -0.47055500
C        2.82260200      -1.15306500      -2.57713300
C        1.71204900       0.78340900      -3.81686100
H        3.55035300       0.81676500      -2.77937900
H        1.88921400      -1.71155100      -2.61074500
H        3.41174200      -1.40877200      -3.46503100
H        3.37913100      -1.45996900      -1.69024100
H        0.73224800       0.30266400      -3.79392200
H        1.57970600       1.87082600      -3.85140800
H        2.23397800       0.47061300      -4.72772500
