87
Properties=species:S:1:pos:R:3 pbc="F F F"
Si      -0.07656100       1.15315200      -0.37145500
O       -1.57717200       0.70937000       0.15959500
C       -2.61859700       1.24395600       0.99944600
C       -3.17313500       2.55550100       0.45892600
H       -3.40950300       0.48787500       0.91317800
C       -3.34534800       2.69084600      -0.92717000
C       -3.56860300       3.61090700       1.29047200
C       -3.88477000       3.85683200      -1.47094200
H       -3.03813900       1.88564900      -1.58557000
C       -4.11307700       4.77952100       0.74789300
H       -3.44430200       3.54437900       2.36614000
C       -4.27193300       4.90857900      -0.63378000
H       -4.00089000       3.94443200      -2.54810400
H       -4.40536200       5.59080900       1.40949500
H       -4.69017600       5.81904000      -1.05470200
C       -2.20820400       1.27668400       2.48763700
C       -1.70578500      -0.00354100       2.97745900
H       -3.09999800       1.54746600       3.06597200
H       -1.46190300       2.06062100       2.64955700
C       -1.29814500      -1.05626500       3.41079100
H       -0.93958400      -1.98089000       3.80430800
Cl       0.20315800       2.00182300      -2.29303900
Cl       0.06837600       3.08316400       0.69225100
O        1.34000900       0.65771600       0.60629500
O        0.02215200      -0.48107000      -1.28099400
C        1.93054100      -1.58190200       0.16518000
C        0.54309100      -2.05449100       0.28690800
C       -1.69008200      -2.03572000      -0.69997600
C        3.60461500       0.17438400       0.21684900
C        4.62317900      -0.77849300      -0.07522700
C        2.91990100      -2.51888700      -0.06446600
C        4.23844500      -2.11685000      -0.20343800
C        0.20742700      -3.12297000       1.09025500
C       -1.09096600      -3.60476700       1.04210400
C       -2.07073600      -3.09894600       0.17426200
H        2.63979300      -3.55978700      -0.16799800
H        4.97080300      -2.88212000      -0.41616000
H        0.94835400      -3.55232800       1.75339900
H       -1.33268900      -4.41937100       1.70847300
C       -3.49795300      -3.68870400       0.29617500
C       -2.38378300      -1.44136600      -1.92683300
N        2.29894600      -0.26857300       0.27196800
N       -0.40570700      -1.54542200      -0.53956000
C        3.89823100       1.63058200       0.52014900
C        6.12502800      -0.41953000      -0.23874500
C        6.33594900       0.65023200      -1.34310200
C        6.73770400       0.00222100       1.12287500
C        6.94923200      -1.64641500      -0.70201600
H        5.89762400       1.62358700      -1.12504700
H        7.41308900       0.79544200      -1.47843900
H        5.91659500       0.29263300      -2.29037600
H        7.79830000       0.23017100       0.96931100
H        6.26802600       0.87596500       1.57867600
H        6.66377600      -0.82846300       1.83388300
H        6.58672800      -2.04353700      -1.65679000
H        7.98458000      -1.32130000      -0.84093100
H        6.95233000      -2.44734800       0.04517800
C       -3.55339700      -4.88813100       1.27661800
C       -4.42124800      -2.60868700       0.91722300
C       -4.03682500      -4.24595200      -1.04053200
H       -3.29361100      -4.59945000       2.30081600
H       -4.58410500      -5.25514200       1.29171800
H       -2.90549800      -5.71111100       0.95434500
H       -3.38046500      -5.04652600      -1.40075600
H       -5.02958300      -4.67242400      -0.86039700
H       -4.13347900      -3.50638200      -1.82786000
H       -4.08378300      -2.38272300       1.93472600
H       -4.43858700      -1.67876800       0.35520800
H       -5.44224600      -3.00405600       0.96814100
C        3.48567100       2.07320800       1.94263200
H        4.97775500       1.69047900       0.52139800
C        3.44164700       2.60267300      -0.58600800
H        3.98192600       3.02923800       2.14318300
H        2.41053100       2.21137600       2.04520500
H        3.83154800       1.34704600       2.68723000
H        3.93035400       3.56662200      -0.40640300
H        3.74557900       2.24106900      -1.57358800
H        2.36732800       2.76391900      -0.58081200
C       -2.07875600      -2.36797900      -3.13479500
C       -3.83735700      -0.94496200      -1.87011400
H       -1.82663600      -0.53431900      -2.13777400
H       -2.47636100      -3.37709900      -3.01544600
H       -2.51834400      -1.91891700      -4.03208400
H       -0.99553300      -2.44043300      -3.28229400
H       -4.59927100      -1.71247300      -1.74728800
H       -3.95759300      -0.20099100      -1.07908100
H       -4.02597000      -0.44035000      -2.82418000
