87
Properties=species:S:1:pos:R:3 pbc="F F F"
Si      -0.38922400       1.11724000       1.34312100
O        0.15827000       2.41261200       0.47789400
C        0.15203400       2.76857300      -0.93315000
C        1.40324800       2.24664600      -1.61266600
H       -0.72194300       2.32884500      -1.41539500
C        2.63266000       2.91307300      -1.51254000
C        1.33783500       1.06119300      -2.35829300
C        3.76624400       2.41294400      -2.15657900
H        2.71430000       3.82388800      -0.92744600
C        2.47170800       0.55193800      -2.99630000
H        0.39288800       0.53341000      -2.43488800
C        3.68826900       1.23349900      -2.90368600
H        4.71119600       2.94286100      -2.07285800
H        2.40236500      -0.36844500      -3.57014200
H        4.56994800       0.84937900      -3.40933800
C        0.02015700       4.30440100      -1.00048000
C       -1.25023900       4.78822700      -0.46498500
H        0.12310500       4.60446500      -2.05103100
H        0.84835700       4.76303300      -0.44816600
C       -2.30637900       5.17246200      -0.01913700
H       -3.23952900       5.50711500       0.37791900
Cl       0.37873300       2.02372300       3.21189600
Cl      -2.29357100       0.79413600       2.25934200
O       -0.98980900       0.35423000      -0.27544500
O        0.65358800      -0.28410100       1.67310400
C       -1.03336400      -1.90909500       0.10855900
C        0.43612600      -1.90489700      -0.00461700
C        2.62226000      -1.16787200       0.74778500
C       -3.06163900      -0.74645900      -0.51983100
C       -3.82245200      -1.91049500      -0.22020400
C       -1.74348500      -3.06903900       0.34013700
C       -3.13003700      -3.04047500       0.23547300
C        1.02959200      -2.77780000      -0.89464500
C        2.41232100      -2.82763100      -0.99237800
C        3.24489600      -2.05699700      -0.17441700
H       -1.21353300      -3.97410300       0.61112500
H       -3.66839400      -3.94439800       0.48324700
H        0.39932100      -3.40462800      -1.51360100
H        2.83404300      -3.50798200      -1.71746100
C        4.78034900      -2.26177600      -0.27489700
C        3.38751400      -0.33929200       1.75954500
N       -1.72314100      -0.78162500      -0.22015700
N        1.24577200      -1.09847900       0.74217600
C       -3.57479700       0.44795900      -1.30925500
C       -5.36253700      -1.97429700      -0.36167300
C       -6.03369500      -0.79540300       0.38900300
C       -5.77590900      -2.03154700      -1.85544400
C       -5.93321800      -3.25958300       0.28424000
H       -5.77050400       0.18987300       0.00472700
H       -7.12026600      -0.90719000       0.30656300
H       -5.76332300      -0.82904400       1.45038200
H       -6.86827900      -2.09786100      -1.91109300
H       -5.46064900      -1.16569300      -2.44055200
H       -5.35218600      -2.92756400      -2.32251400
H       -5.65054700      -3.34112800       1.33951000
H       -7.02471000      -3.21066100       0.22494600
H       -5.61238400      -4.16322500      -0.24566700
C        5.14702800      -3.20764000      -1.44489100
C        5.53759400      -0.94118300      -0.56910000
C        5.29759600      -2.96224300       1.01052600
H        4.79993800      -2.81589500      -2.40775000
H        6.23748300      -3.28529500      -1.48360700
H        4.74862400      -4.21755700      -1.29957400
H        4.82120100      -3.94362000       1.11427400
H        6.37867900      -3.11213100       0.91266400
H        5.11660500      -2.40059600       1.92916600
H        5.16201300      -0.49537400      -1.49444400
H        5.46868500      -0.18947300       0.21648400
H        6.59783100      -1.18088500      -0.70428400
C       -2.83998900       0.51976800      -2.66918200
H       -4.60273000       0.20343800      -1.54781600
C       -3.63133100       1.82102900      -0.61879200
H       -3.34879200       1.26398800      -3.29045600
H       -1.79860100       0.82379100      -2.55086600
H       -2.87190000      -0.44519700      -3.18687800
H       -4.13377700       2.51045800      -1.30601600
H       -4.20572900       1.77394900       0.30901500
H       -2.64656200       2.22534100      -0.39500300
C        3.41351800       1.16159500       1.41083500
C        3.03022100      -0.63339000       3.23519000
H        4.41150700      -0.67202000       1.65910100
H        4.07692400       1.66176900       2.12523800
H        3.80749400       1.31197600       0.40269800
H        2.43338600       1.62877100       1.47378200
H        2.10612400      -0.15150700       3.54887300
H        2.95497300      -1.71271600       3.41076200
H        3.85133600      -0.24548700       3.84814400
