87
Properties=species:S:1:pos:R:3 pbc="F F F"
Si      -0.29755800       0.99053800       1.08321000
O        0.22193900       2.07966100      -0.03216700
C        1.08160400       3.22451500      -0.04960500
C        2.26823300       2.95112900      -0.95135800
H        1.43432000       3.45089300       0.96024500
C        2.14721200       2.13710600      -2.08448600
C        3.50710500       3.52616200      -0.64869700
C        3.25903800       1.88436000      -2.89180800
H        1.18864600       1.68135800      -2.31361200
C        4.61875400       3.28120400      -1.45940500
H        3.60634400       4.14815600       0.23809000
C        4.49866500       2.45391700      -2.58052200
H        3.15950400       1.24054600      -3.76216100
H        5.57935700       3.72310600      -1.20791000
H        5.36484300       2.25208100      -3.20517000
C        0.25603600       4.42671100      -0.57149900
C       -0.84853000       4.78033100       0.31632300
H        0.93765400       5.27903400      -0.68467500
H       -0.12098400       4.17591700      -1.57152100
C       -1.75188600       5.04690300       1.07459900
H       -2.55137700       5.27981100       1.74313100
Cl       0.61361000       1.90621000       2.89478500
Cl      -2.22860500       1.03661500       1.97980400
O       -0.92980000       0.11994000      -0.47131100
O        0.58598600      -0.48184300       1.55002600
C       -1.44605900      -2.00435500       0.25615200
C       -0.00732000      -2.31476300       0.20039800
C        2.31740700      -1.77714400       0.64354800
C       -3.16278600      -0.57413300      -0.68093700
C       -4.16206000      -1.49122600      -0.25527500
C       -2.39506800      -2.93640100       0.62627300
C       -3.73911400      -2.64298400       0.42353000
C        0.38428600      -3.45238700      -0.48002000
C        1.73280100      -3.72180600      -0.66020500
C        2.73124400      -2.89235200      -0.14044000
H       -2.08137100      -3.87116200       1.07506400
H       -4.46529600      -3.36075600       0.77790400
H       -0.37601300      -4.09228000      -0.91043200
H        1.99264600      -4.59956500      -1.23431000
C        4.21549500      -3.23569600      -0.43398800
C        3.27922400      -0.91970200       1.44125600
N       -1.87348200      -0.83247200      -0.29312900
N        0.96743600      -1.51629300       0.72981700
C       -3.37838200       0.57181900      -1.65763800
C       -5.67441400      -1.26194400      -0.48898400
C       -6.52794600      -2.27899700       0.30571600
C       -6.10796000       0.13549600       0.02386900
C       -6.03434200      -1.47715400      -1.98215800
H       -6.30740500      -2.23910100       1.37832400
H       -7.58152300      -2.01984100       0.16381900
H       -6.38738700      -3.30468300      -0.05294500
H       -7.18817000       0.23817500      -0.12680600
H       -5.90084100       0.21729600       1.09679500
H       -5.62074900       0.97089800      -0.47807000
H       -5.78693500      -2.50269800      -2.27872000
H       -7.11403500      -1.33475300      -2.10351000
H       -5.52585400      -0.79553800      -2.66705100
C        4.33195700      -4.38640000      -1.46369400
C        4.94898400      -2.03147300      -1.08261500
C        4.92895400      -3.74790000       0.84531400
H        3.82780000      -4.14180400      -2.40536000
H        5.39433500      -4.53962200      -1.67541800
H        3.93335500      -5.32933600      -1.07425000
H        4.43401200      -4.65705600       1.20459800
H        5.96419000      -3.99806300       0.58800400
H        4.95053100      -3.02997200       1.66708500
H        4.44366800      -1.74837800      -2.01288000
H        5.01672800      -1.14497400      -0.45267300
H        5.96939700      -2.34437000      -1.32906500
C       -2.58003700       0.31027600      -2.95792000
H       -4.42307600       0.50558300      -1.93637300
C       -3.16564700       2.01082600      -1.15061700
H       -2.90558500       1.04196600      -3.70501000
H       -1.50586700       0.42813500      -2.79877200
H       -2.77926800      -0.69412400      -3.34793200
H       -3.53821400       2.68682300      -1.92856200
H       -3.72515200       2.19970100      -0.23172400
H       -2.11404700       2.23216400      -0.97381500
C        3.40849100       0.52844500       0.93584700
C        3.06470500      -1.01877000       2.96957900
H        4.24649000      -1.37093300       1.26934900
H        2.55830600       1.14211200       1.21992900
H        4.30189100       0.96635700       1.39383200
H        3.52679700       0.56595900      -0.14994200
H        2.19445900      -0.45603000       3.30479800
H        2.96337300      -2.06491000       3.28023200
H        3.95665800      -0.60407200       3.45213600
