73
Properties=species:S:1:pos:R:3 pbc="F F F"
Si      -0.02696200      -1.05868700       0.31779600
O        1.21675000      -1.98914500      -0.30237100
C        2.22316500      -2.82850400       0.25146600
C        3.53359300      -2.59403300      -0.47323500
H        2.36592000      -2.60284000       1.31283800
C        3.56859600      -2.37504400      -1.85624600
C        4.73197100      -2.59874100       0.25062100
C        4.78420800      -2.13672700      -2.50193700
H        2.63858100      -2.35767700      -2.41591500
C        5.95107300      -2.36103400      -0.39268900
H        4.70674300      -2.76261200       1.32556900
C        5.97849900      -2.12198400      -1.77122100
H        4.80038000      -1.95297100      -3.57301000
H        6.87359100      -2.34964000       0.18159900
H        6.92263700      -1.92535500      -2.27196500
C        1.79762600      -4.31791700       0.12209700
C        0.66580400      -4.66598700       0.97648700
H        2.66202900      -4.94197300       0.38350700
H        1.56017600      -4.51474300      -0.93120100
C       -0.26111600      -4.92935500       1.70758900
H       -1.08651000      -5.15993200       2.34461400
Cl       0.55239200      -1.06115100       2.36814300
Cl      -1.52018700      -2.16700300      -0.73107600
O        0.43453200       0.31256800      -0.73961200
O       -1.40844600       0.09470300       1.06676200
C       -0.70746300       2.31527600      -0.31080500
C       -2.00833500       1.66881100      -0.53043200
C       -3.62288100       0.07838900       0.29281400
C        1.69524300       2.16407800      -0.08948000
C        1.78737600       3.54592200       0.22710100
C       -0.63429000       3.67563500      -0.05117000
C        0.59183100       4.27254900       0.21943000
C       -2.96277000       2.19532300      -1.38596000
C       -4.23475600       1.63444300      -1.43056300
C       -4.61475500       0.58093700      -0.58973500
H       -1.55225800       4.25008300      -0.02413800
H        0.60237200       5.33090200       0.44169200
H       -2.69817100       3.03540700      -2.01672400
H       -4.94818800       2.04957100      -2.12955700
C       -6.03808500       0.00082600      -0.63175700
C       -3.82082700      -0.91410600       1.28158900
N        0.45261400       1.60517400      -0.32799100
N       -2.34671000       0.60318300       0.24529700
C        2.79094300       1.28665100      -0.23278300
C        3.12974800       4.22185000       0.55515200
C        4.06070000       4.17923300      -0.68189900
C        2.93586500       5.70509200       0.93111100
C        3.78971700       3.52489900       1.77077400
H        3.59922400       4.71090200      -1.52181200
H        4.99746600       4.68590700      -0.42490600
H        4.29512100       3.16020600      -0.99242300
H        3.91640700       6.12292800       1.17783300
H        2.52142900       6.28499500       0.09866600
H        2.28668000       5.81942000       1.80678800
H        4.72775300       4.04360600       1.99667900
H        3.13683100       3.59324700       2.64829700
H        4.01629200       2.47508900       1.57942400
C        3.74214000       0.55871300      -0.40494100
H        4.58807900      -0.08158200      -0.54755300
C       -3.98770000      -1.72485600       2.16319600
H       -4.14688400      -2.45457300       2.92811300
C       -5.98023900      -1.50988500      -0.96814000
C       -6.74522800       0.23613300       0.72568100
C       -6.89325000       0.68037900      -1.72026300
H       -5.43980700      -2.08473500      -0.21430300
H       -7.00585700      -1.89151100      -1.02165400
H       -5.50143100      -1.66402400      -1.94168600
H       -6.23335700      -0.25892100       1.55230800
H       -6.81064900       1.30903800       0.93888100
H       -7.76228400      -0.16577600       0.65884900
H       -6.46127700       0.54383700      -2.71820300
H       -7.88422500       0.21653300      -1.71180700
H       -7.01925900       1.75212800      -1.52856600
