73
Properties=species:S:1:pos:R:3 pbc="F F F"
Si      -0.14278800       0.85593200       0.79181200
O        0.27410200       1.78032200      -0.50479400
C        0.46910800       3.20676100      -0.59893200
C       -0.83084300       3.95513000      -0.39880800
H        1.20007900       3.52464100       0.15023600
C       -2.00489600       3.52006000      -1.02782800
C       -0.86018000       5.11089100       0.38856000
C       -3.19535200       4.23120500      -0.86660900
H       -1.98449700       2.61427800      -1.62672800
C       -2.04968100       5.82833100       0.54629500
H        0.04787300       5.44043300       0.88765500
C       -3.21993000       5.38893900      -0.08061100
H       -4.10422000       3.88389500      -1.35141400
H       -2.06485600       6.72176600       1.16500200
H       -4.14706000       5.94158900       0.04697500
C        1.03860200       3.48080300      -2.01094700
C        2.34300300       2.86609900      -2.24641900
H        1.11370900       4.56897700      -2.13051000
H        0.31040300       3.12357900      -2.75018500
C        3.42739100       2.36185000      -2.42824700
H        4.38158700       1.91149600      -2.58870600
Cl      -2.08201700       0.70043900       1.63288400
Cl       0.55218600       2.17171300       2.42374100
O       -0.60807600      -0.39073600      -0.60525400
O        0.97003400      -0.37848400       1.42694200
C       -0.34962900      -2.54544600       0.23387200
C        1.10345000      -2.35352100       0.16421900
C        3.03633500      -0.93828200       0.48896600
C       -2.50742800      -1.75046000      -0.49081900
C       -3.12605700      -2.96161100      -0.08275200
C       -0.92350900      -3.74563800       0.62256500
C       -2.29567800      -3.93023000       0.49465600
C        1.91471700      -3.30501700      -0.43636800
C        3.27933900      -3.07616400      -0.57270800
C        3.88270500      -1.89078500      -0.13697300
H       -0.28792500      -4.52296200       1.02982800
H       -2.71628300      -4.86614700       0.83604800
H        1.45876000      -4.20875500      -0.82237700
H        3.87614100      -3.84094000      -1.05139800
C        5.39097700      -1.64810100      -0.31417700
C        3.44561700       0.30471300       1.01550300
N       -1.15860300      -1.56422800      -0.25754100
N        1.69113000      -1.22126500       0.63199400
C       -3.14317400      -0.68883100      -1.17743000
C       -4.63320500      -3.20738400      -0.26278200
C       -4.98250400      -3.23486800      -1.77117900
C       -5.06098000      -4.56414900       0.33223800
C       -5.44069200      -2.10896000       0.47238100
H       -4.44212500      -4.04725600      -2.27039500
H       -6.05754500      -3.42038500      -1.87307000
H       -4.74626800      -2.29327900      -2.26918300
H       -6.14041200      -4.67166000       0.18854500
H       -4.56719400      -5.40223400      -0.17255000
H       -4.85305200      -4.61963800       1.40692200
H       -6.50759100      -2.32750300       0.35289100
H       -5.20308200      -2.11545800       1.54210400
H       -5.24851800      -1.11132100       0.07441900
C       -3.66860200       0.19383000      -1.81552100
H       -4.15450900       0.97054000      -2.36590000
C        3.75774500       1.38606400       1.45702500
H        4.04341700       2.34078100       1.84330600
C        5.62738600      -0.38994800      -1.18480600
C        6.06422500      -1.49271100       1.07199800
C        6.07240500      -2.83373000      -1.02636500
H        5.21817100       0.51206800      -0.72806800
H        6.70743800      -0.25501400      -1.30910700
H        5.17817700      -0.52416700      -2.17530400
H        5.67886800      -0.63661500       1.62798900
H        5.91821900      -2.40019500       1.66844100
H        7.13921700      -1.34770700       0.91871600
H        5.66285900      -2.99242100      -2.03033500
H        7.13702800      -2.60237400      -1.12638400
H        5.97919200      -3.76103600      -0.44976200
