73
Properties=species:S:1:pos:R:3 pbc="F F F"
Si      -0.31783400       1.23376200       1.34930800
O        0.22236700       2.43230500       0.35919600
C        0.00876600       2.67536900      -1.05625000
C        1.05057200       1.95498800      -1.88066500
H       -0.98880500       2.33427300      -1.34097600
C        2.41576800       2.13474300      -1.61924200
C        0.65741000       1.10935000      -2.92396100
C        3.37335700       1.47907800      -2.39432700
H        2.72496000       2.77688200      -0.79950200
C        1.61484400       0.44931500      -3.70047500
H       -0.40215800       0.96304500      -3.11881400
C        2.97556800       0.63357600      -3.43622200
H        4.42868100       1.62300900      -2.18375500
H        1.29987600      -0.20718200      -4.50760200
H        3.72254800       0.12176500      -4.03752200
C        0.08286700       4.20558700      -1.25738500
C       -0.99895200       4.91607300      -0.57881000
H        0.04077400       4.40237000      -2.33629100
H        1.05780500       4.56091900      -0.90106200
C       -1.91164500       5.47412300      -0.01416900
H       -2.70902500       5.97481700       0.49009300
Cl       0.49469500       2.21016100       3.13550600
Cl      -2.28767700       1.15773100       2.13993200
O       -0.85251500       0.25737900      -0.21173500
O        0.62474100      -0.21318900       1.81269400
C       -0.95212400      -2.00300400       0.29277400
C        0.51560700      -2.02102400       0.30694400
C        2.61855500      -0.97251600       0.87426300
C       -2.92872800      -0.79547100      -0.38712900
C       -3.73928300      -1.94272000      -0.18723400
C       -1.71664700      -3.14594500       0.47094100
C       -3.09114700      -3.09953700       0.26454300
C        1.20942200      -3.00943700      -0.37687600
C        2.59846300      -2.99493100      -0.41393000
C        3.34851300      -1.98388700       0.19738700
H       -1.22835400      -4.06236500       0.77958200
H       -3.66191300      -4.00041600       0.44355300
H        0.64543700      -3.77444000      -0.89662800
H        3.10029700      -3.78851600      -0.95033500
C        4.88589800      -1.99756500       0.16183100
C        3.17608500       0.14308700       1.53396000
N       -1.58462700      -0.85436300      -0.07678200
N        1.23944400      -1.05559500       0.93417100
C       -3.35388500       0.44168300      -0.92744800
C       -5.25431800      -1.92107200      -0.44274200
C       -5.53191800      -1.66636100      -1.94458500
C       -5.91115300      -3.26661500      -0.07330600
C       -5.91786900      -0.82962900       0.43341500
H       -5.09269400      -2.46514000      -2.55301500
H       -6.61647100      -1.66891400      -2.09952300
H       -5.13844400      -0.70621300      -2.28216900
H       -6.98584800      -3.18154100      -0.26110300
H       -5.52494500      -4.09019300      -0.68449000
H       -5.76873100      -3.50961100       0.98588500
H       -6.99929600      -0.86008800       0.26133300
H       -5.72880500      -1.02751700       1.49443800
H       -5.56083700       0.17310500       0.19308500
C       -3.68339200       1.48820500      -1.43633800
H       -3.99603500       2.41353800      -1.87122900
C        3.61293300       1.12708400       2.08406200
H        4.00783300       1.99464700       2.56765900
C        5.42032200      -0.73572800      -0.55492400
C        5.43644100      -2.08411100       1.60758900
C        5.42065700      -3.22216000      -0.60795100
H        5.10901300       0.18613400      -0.06253600
H        6.51517700      -0.77692400      -0.55270700
H        5.07330600      -0.71370900      -1.59262200
H        5.15986500      -1.21814600       2.21158200
H        5.07162700      -2.99254000       2.10004400
H        6.52953600      -2.13250000       1.55575700
H        5.09502200      -3.21590100      -1.65448200
H        6.51392900      -3.18075500      -0.59320800
H        5.11064100      -4.16426800      -0.14161900
