73
Properties=species:S:1:pos:R:3 pbc="F F F"
Si      -0.07201100      -1.25185100      -0.20141000
O        1.44240700      -0.79485800       0.18892400
C        2.62373500      -0.99042500       0.98560300
C        3.58536500      -1.95768800       0.32829900
H        3.09388100      -0.00156000       0.99004000
C        3.26892200      -3.31062100       0.14296900
C        4.83323100      -1.48467800      -0.09764300
C        4.18469600      -4.17039800      -0.46762600
H        2.30549000      -3.68981900       0.46606800
C        5.75459200      -2.34501700      -0.70221600
H        5.08227300      -0.43571200       0.04366800
C        5.42979100      -3.69123100      -0.89124100
H        3.92729300      -5.21666400      -0.61099600
H        6.71892600      -1.96355100      -1.02768500
H        6.14046200      -4.36326100      -1.36518100
C        2.32203500      -1.34854300       2.45872500
C        1.44376000      -0.36710400       3.09042300
H        3.28872400      -1.37407400       2.97824900
H        1.88873300      -2.35064500       2.52470900
C        0.71987600       0.47377300       3.57226200
H        0.07595500       1.20245000       4.01321200
Cl      -0.51137600      -2.23310900      -2.01391100
Cl      -0.25725700      -3.05401100       1.04985800
O       -1.41549400      -0.58672200       0.77445900
O       -0.18861900       0.35086100      -1.26487100
C       -2.11587200       1.56968000       0.15040600
C       -0.73716100       2.07044000       0.19227600
C        1.46453300       1.95032200      -0.78337600
C       -3.64658100      -0.30030200       0.16159800
C       -4.74391100       0.55128000      -0.13122000
C       -3.17768600       2.42428400      -0.10441000
C       -4.46669300       1.91944400      -0.23442100
C       -0.36769100       3.20532500       0.89611400
C        0.93201200       3.68740600       0.78940000
C        1.88181600       3.09262700      -0.05073000
H       -2.97423300       3.47986600      -0.23794900
H       -5.26655600       2.61618100      -0.44568100
H       -1.09594100       3.69077600       1.53484800
H        1.20054700       4.55676700       1.37391500
C        3.30843900       3.65532500      -0.16380100
C        2.24069000       1.25156300      -1.73739600
N       -2.38592600       0.24596100       0.30631300
N        0.18721300       1.46181700      -0.59975000
C       -3.71544000      -1.69774600       0.34932400
C       -6.16893600       0.00669300      -0.32147000
C       -6.65587400      -0.67036600       0.98359200
C       -7.16493000       1.13646500      -0.65172200
C       -6.19550000      -0.99295100      -1.50460200
H       -6.66626800       0.05366400       1.80603500
H       -7.67879500      -1.02847000       0.82406700
H       -6.03617700      -1.52182100       1.26973000
H       -8.15340800       0.68785900      -0.78778400
H       -7.23311000       1.86743000       0.16198600
H       -6.89641400       1.65600500      -1.57867900
H       -7.22401000      -1.34852300      -1.63126700
H       -5.88400400      -0.49502400      -2.42981200
H       -5.55208400      -1.85767500      -1.33444300
C       -3.73522600      -2.89631400       0.50714100
H       -3.76360500      -3.95657100       0.64037100
C        2.88749800       0.66646200      -2.57470300
H        3.47463200       0.14438800      -3.29948000
C        4.33632500       2.56904300       0.23750700
C        3.56680000       4.15096200      -1.60790000
C        3.52104200       4.85539000       0.78077300
H        4.29609300       1.69925800      -0.41975700
H        5.34125100       3.00013000       0.17367500
H        4.16446200       2.24549200       1.27045200
H        3.48958200       3.34823200      -2.34292300
H        2.85538500       4.94256300      -1.86926900
H        4.57983700       4.56565300      -1.65470000
H        3.36855600       4.57685100       1.82978900
H        4.55354700       5.19912700       0.66629000
H        2.85658300       5.69032800       0.53149800
