73
Properties=species:S:1:pos:R:3 pbc="F F F"
Si       0.17965900       1.04367000      -0.91671600
O       -0.54567400       1.84610400       0.32245900
C       -1.39365100       3.01391200       0.33421300
C       -2.84204900       2.62181200       0.52133400
H       -1.28708700       3.56475900      -0.60324300
C       -3.21701400       1.69678700       1.50425300
C       -3.82908100       3.21653800      -0.27272000
C       -4.56171400       1.36886700       1.68742400
H       -2.45139200       1.22154200       2.11121900
C       -5.17715200       2.89086800      -0.09078200
H       -3.53814100       3.92601700      -1.04351600
C       -5.54553800       1.96433500       0.88982500
H       -4.84288900       0.64525300       2.44741200
H       -5.93509900       3.35412300      -0.71694700
H       -6.59148500       1.70485900       1.02985200
C       -0.90738900       3.91554200       1.49450000
C        0.43106800       4.45522700       1.26598500
H       -1.62613400       4.73787300       1.60190100
H       -0.93740800       3.33444800       2.42489600
C        1.53144900       4.89981000       1.03217400
H        2.50200500       5.29585200       0.82803300
Cl      -0.96854200       1.86412100      -2.61805000
Cl       2.03294600       1.63387500      -1.76255800
O        1.05975800       0.14630300       0.53500900
O       -0.34723500      -0.56169700      -1.48274300
C        1.76847700      -1.93855500      -0.22935400
C        0.37233000      -2.38608100      -0.18469400
C       -1.97707800      -1.89480900      -0.47546500
C        3.35697400      -0.28143800       0.51445400
C        4.44577400      -1.12170000       0.16472600
C        2.81406600      -2.78626400      -0.56181000
C        4.12859500      -2.36506800      -0.39597200
C        0.03381500      -3.58738000       0.42126100
C       -1.30213000      -3.93871100       0.58264400
C       -2.34626500      -3.10023800       0.17766500
H        2.58670900      -3.77018300      -0.95396200
H        4.92026100      -3.03961100      -0.69290500
H        0.82589500      -4.22004200       0.80321900
H       -1.52332300      -4.87916200       1.06923000
C       -3.81620700      -3.46637400       0.43588400
C       -2.86660600      -0.92211500      -0.97143300
N        2.06600400      -0.69433000       0.24418800
N       -0.63762800      -1.60719100      -0.65495400
C        3.45034800       0.96810200       1.16975100
C        5.90530200      -0.69197800       0.38329400
C        6.18054600      -0.51497700       1.89703500
C        6.89245300      -1.75339600      -0.14278400
C        6.18889200       0.62169300      -0.38709000
H        6.00996200      -1.45933600       2.42661200
H        7.23104600      -0.23144100       2.02619000
H        5.55762200       0.26061200       2.34540800
H        7.90881700      -1.38335500       0.02218300
H        6.78743100      -2.70528700       0.39003900
H        6.76399800      -1.92828500      -1.21702900
H        7.23803900       0.89444700      -0.22855800
H        6.02670900       0.47471400      -1.46089100
H        5.56427200       1.44924000      -0.04659100
C        3.49547200       2.01182900       1.77883800
H        3.53985900       2.94355200       2.30002400
C       -3.59389400      -0.02827800      -1.33687600
H       -4.24227700       0.77341600      -1.61937800
C       -4.46087700      -2.39573400       1.35141000
C       -4.58568300      -3.57953400      -0.90257500
C       -3.94062100      -4.82525600       1.15425200
H       -4.47328900      -1.40662500       0.89197800
H       -5.49494900      -2.69443600       1.55610000
H       -3.92263000      -2.33619800       2.30449100
H       -4.59297200      -2.64110800      -1.45922200
H       -4.14503100      -4.36254600      -1.52974200
H       -5.62217100      -3.85521500      -0.68001300
H       -3.44854200      -4.81319300       2.13340500
H       -5.00387300      -5.02990100       1.31172400
H       -3.52309800      -5.64175200       0.55380000
