73
Properties=species:S:1:pos:R:3 pbc="F F F"
Si       0.17949500      -0.81943100       0.50170300
O        1.59662300      -1.63688200       0.14613600
C        1.95087600      -3.02066100       0.07105200
C        3.25813500      -3.10876500      -0.69287400
H        1.17935200      -3.57037300      -0.47902600
C        4.43740200      -2.56431900      -0.16292300
C        3.29784200      -3.72959700      -1.94554500
C        5.63472000      -2.63655300      -0.87737200
H        4.41428600      -2.08008500       0.80962000
C        4.49644000      -3.80688300      -2.66406700
H        2.38485300      -4.15128600      -2.35993400
C        5.66655500      -3.25861600      -2.13203200
H        6.54336800      -2.21293700      -0.45674000
H        4.51438600      -4.29167900      -3.63672800
H        6.59866400      -3.31637100      -2.68797800
C        2.09171300      -3.65081100       1.48335600
C        0.82231800      -3.79815100       2.18859400
H        2.55923300      -4.63661700       1.36310200
H        2.77956500      -3.03451500       2.07472100
C       -0.23955800      -3.92207200       2.75433500
H       -1.17928200      -4.01901200       3.25187200
Cl       0.81065500      -0.25401200       2.46904900
Cl      -1.15463300      -2.22204500      -0.42893300
O        0.49961200       0.41432800      -0.73624500
O       -1.35867600       0.22355600       1.07392300
C       -0.79213000       2.35010700      -0.50084000
C       -2.02891100       1.57634100      -0.68980800
C       -3.52760300      -0.07480400       0.22924400
C        1.60893900       2.40240400      -0.21101600
C        1.58749600       3.80514000       0.00361900
C       -0.82879100       3.72838600      -0.35349400
C        0.34211700       4.43528600      -0.09853000
C       -2.99388400       1.93669100      -1.61618700
C       -4.20835500       1.25800900      -1.64935800
C       -4.52411800       0.25182800      -0.72814100
H       -1.78680900       4.23187700      -0.39918100
H        0.26820300       5.50600700       0.03668000
H       -2.78057600       2.74067800      -2.31019000
H       -4.92928200       1.54109600      -2.40416400
C       -5.88505000      -0.46269600      -0.75998400
C       -3.67747400      -0.98502300       1.30211700
N        0.41995900       1.73796800      -0.43913600
N       -2.30217700       0.55747200       0.17256300
C        2.76061700       1.58746000      -0.25803200
C        2.86463000       4.59557600       0.32921200
C        3.84994000       4.52402100      -0.86342800
C        2.55650900       6.08443600       0.58631400
C        3.51382300       4.02971200       1.61662800
H        3.39182800       4.95419800      -1.76132000
H        4.73893900       5.11292900      -0.61216600
H        4.16528500       3.50230300      -1.08108500
H        3.49502200       6.58538800       0.84187900
H        2.14339600       6.57419300      -0.30278700
H        1.86147600       6.21587100       1.42365900
H        4.40311300       4.62689000       1.84615400
H        2.81709700       4.10671400       2.45894800
H        3.82055000       2.98818100       1.50624400
C        3.71585200       0.85100600      -0.34236300
H        4.55026900       0.18610500      -0.41436000
C       -3.80695400      -1.72081500       2.25292100
H       -3.93002700      -2.38742600       3.07946800
C       -5.67405300      -1.98533800      -0.94847200
C       -6.66594400      -0.17161200       0.54523500
C       -6.75563400       0.02857200      -1.93384700
H       -5.10964500      -2.43302400      -0.12879200
H       -6.65733000      -2.46652300      -0.99253200
H       -5.14808600      -2.18218000      -1.88941600
H       -6.14392000      -0.53388700       1.43204600
H       -6.84146600       0.90509000       0.65039200
H       -7.63632300      -0.67710300       0.48556000
H       -6.27409200      -0.15458000      -2.90112800
H       -7.69837000      -0.52640000      -1.91249300
H       -6.98873100       1.09586000      -1.84653800
