79
Properties=species:S:1:pos:R:3 pbc="F F F"
Si      -0.19264800      -1.77491400      -0.59840600
O        1.42621800      -1.76929900      -0.33887300
C        2.42433700      -1.96203600       0.68516100
C        2.22596000      -1.02491600       1.86016500
H        3.35648300      -1.68875900       0.18105600
C        1.09485300      -1.10131800       2.68568500
C        3.20660900      -0.06787400       2.14268700
C        0.94354600      -0.22039100       3.75838800
H        0.33079300      -1.84577700       2.48984300
C        3.06417900       0.81028400       3.22045000
H        4.08912500      -0.01255100       1.51350300
C        1.92775800       0.73707300       4.02994200
H        0.06029100      -0.28641400       4.38817400
H        3.83557500       1.54856100       3.42228300
H        1.80962500       1.41786500       4.86889600
C        2.57389100      -3.43246600       1.14186100
C        2.82870800      -4.34844500       0.03397700
H        3.42012100      -3.45072700       1.84145100
H        1.68530200      -3.74454400       1.69738800
C        3.04469100      -5.08601300      -0.90004700
H        3.22815500      -5.74600500      -1.71945100
Cl      -1.00757700      -2.53046600      -2.39293300
Cl      -0.73150200      -3.56617300       0.57705000
O       -1.19424300      -0.84578200       0.55480000
O       -0.00478500      -0.16191800      -1.62713800
C       -1.39481700       1.42147300      -0.01337700
C        0.07728700       1.52253300      -0.03246100
C        2.02062300       0.98634400      -1.36566300
C       -3.33450200      -0.02219000       0.16312600
C       -4.20382300       1.06944700      -0.08747700
C       -2.21663200       2.51523300      -0.29693100
C       -3.60094300       2.30658900      -0.31142500
C        0.81756000       2.41215000       0.73888800
C        2.16605800       2.59208300       0.40385100
C        2.78813500       1.95764900      -0.67056900
H       -4.22190200       3.16445200      -0.53543400
H        2.73187900       3.29065800       1.00616000
C        4.22097200       2.32401300      -1.09459100
C        2.46272800       0.19089800      -2.44854600
N       -1.97798600       0.20988700       0.19669800
N        0.71340300       0.79157200      -0.99397600
C       -3.72545100      -1.36043800       0.38490000
C       -5.73132400       0.90100200      -0.13256000
C       -6.24445800       0.37148100       1.22914000
C       -6.44177900       2.24289800      -0.40070900
C       -6.11655200      -0.06461200      -1.28050000
H       -5.98978800       1.07446200       2.03049100
H       -7.33541100       0.28567400       1.17742000
H       -5.83470100      -0.60954200       1.47432400
H       -7.52024600       2.05879200      -0.41308100
H       -6.22999400       2.97770600       0.38450200
H       -6.15861000       2.66518900      -1.37146300
H       -7.20834400      -0.15202900      -1.30672500
H       -5.77732100       0.33572900      -2.24258000
H       -5.69484000      -1.06183800      -1.14395600
C       -4.02714500      -2.51777900       0.56203700
H       -4.30066100      -3.53987800       0.71312500
C        2.81984900      -0.47598400      -3.39200300
H        3.15233300      -1.06875400      -4.21709300
C        5.16682300       1.10015700      -1.06582800
C        4.16597200       2.92399300      -2.52292800
C        4.83103000       3.39065600      -0.16406500
H        4.81531200       0.27942400      -1.69179100
H        6.14748000       1.41860600      -1.43609400
H        5.29589900       0.73674000      -0.04161300
H        3.79476200       2.20420500      -3.25581100
H        3.52375700       3.81208000      -2.53926000
H        5.17901500       3.22288500      -2.81418500
H        4.90372000       3.03019400       0.86867500
H        5.84191800       3.61401700      -0.51848400
H        4.25232600       4.32117900      -0.17830400
C        0.23232900       3.15200800       1.90743300
H        0.34971600       4.23272000       1.77419400
H       -0.82317400       2.92093100       2.06245500
H        0.78301000       2.86379700       2.80969100
C       -1.66571500       3.87825600      -0.61579900
H       -2.36899700       4.41649200      -1.25641900
H       -1.53376200       4.46196600       0.30238200
H       -0.69742000       3.81937200      -1.11921600
