79
Properties=species:S:1:pos:R:3 pbc="F F F"
Si      -0.34287800      -1.70117000      -0.26425700
O        1.28800400      -1.56906700      -0.09511500
C        2.31943100      -2.27037500       0.61102600
C        3.03386400      -1.28995900       1.53628200
H        1.87229100      -3.07100000       1.20903400
C        2.33937100      -0.19316600       2.06693900
C        4.37420300      -1.47263800       1.90909200
C        2.97183500       0.71271200       2.92045800
H        1.29740200      -0.04225900       1.80961100
C        5.00818900      -0.56922200       2.76671300
H        4.94396100      -2.31360900       1.52852200
C        4.31295500       0.53311000       3.27000400
H        2.41459300       1.55894300       3.31328300
H        6.05049600      -0.72513800       3.03162200
H        4.80924800       1.24086800       3.92837600
C        3.25610400      -2.91305700      -0.44038900
C        2.54044700      -3.78721700      -1.36495600
H        4.02319200      -3.49480600       0.08245600
H        3.76526100      -2.11621800      -0.99498300
C        1.92694400      -4.49837200      -2.12628100
H        1.38043400      -5.12729300      -2.79413800
Cl      -1.43348100      -2.57033700      -1.84373500
Cl      -0.65422200      -3.38236100       1.12408300
O       -1.25627000      -0.65969900       0.86926600
O       -0.22703800      -0.19839500      -1.46036900
C       -1.69528900       1.46041200      -0.02611400
C       -0.23727700       1.67399900      -0.09756900
C        1.75716800       1.05295600      -1.31065100
C       -3.49135800      -0.07520700       0.51338800
C       -4.46127500       0.88293400       0.11834100
C       -2.61676900       2.42162400      -0.44146300
C       -3.97743600       2.10240400      -0.35242300
C        0.44009600       2.69960800       0.55317300
C        1.79792100       2.86765900       0.25437100
C        2.48501300       2.09888200      -0.68312300
H       -4.67837200       2.85594700      -0.68773800
H        2.32362400       3.64944000       0.78719400
C        3.96643200       2.36046100      -0.99707900
C        2.24502700       0.17724400      -2.30855700
N       -2.16049400       0.25844600       0.41454100
N        0.44816100       0.85558600      -0.94735200
C       -3.76328100      -1.36566300       1.01664800
C       -5.96991000       0.59251300       0.18639000
C       -6.38970600       0.31333200       1.65046900
C       -6.80082300       1.79432200      -0.30705600
C       -6.31439300      -0.61107000      -0.72524900
H       -6.17927100       1.18565700       2.27971500
H       -7.46892400       0.12569300       1.66870900
H       -5.88306600      -0.55692900       2.07057500
H       -7.85941600       1.52887900      -0.22933700
H       -6.62920400       2.68639100       0.30628900
H       -6.58693800       2.03306200      -1.35509500
H       -7.39509200      -0.78387900      -0.67474800
H       -6.04643600      -0.38853100      -1.76423800
H       -5.80635200      -1.52612200      -0.41696000
C       -3.97529000      -2.47435300       1.44969200
H       -4.16816800      -3.45638700       1.82492500
C        2.62714900      -0.55150500      -3.19450500
H        2.98104400      -1.20685400      -3.96105500
C        4.80382200       1.09782900      -0.68184700
C        4.11904300       2.76970600      -2.48216600
C        4.53430500       3.50751200      -0.13767200
H        4.69161000       0.81982800       0.36985100
H        4.52015100       0.24707200      -1.30310600
H        5.85801200       1.32583400      -0.87493100
H        3.77932200       1.98723700      -3.16324200
H        3.55426800       3.68728900      -2.68383800
H        5.17884800       2.96447200      -2.68123500
H        4.48237300       3.27260500       0.93152300
H        5.58670100       3.64350800      -0.40488500
H        4.01152800       4.45272700      -0.32369000
C       -0.22305600       3.59336100       1.56389400
H       -0.33102500       4.60613500       1.15901900
H       -1.20833400       3.22671000       1.85949400
H        0.40876300       3.66359700       2.45536100
C       -2.19937200       3.75457800      -0.99941400
H       -2.90078900       4.05868400      -1.78154100
H       -2.22598200       4.51858300      -0.21354400
H       -1.19025300       3.72905700      -1.41631800
