79
Properties=species:S:1:pos:R:3 pbc="F F F"
Si      -0.16398500       1.32036500       0.98252000
O        0.85101200       1.85785000      -0.19134400
C        1.92107400       2.81890400      -0.22849700
C        3.12859900       2.19582700      -0.89419500
H        2.18116600       3.13140500       0.78552100
C        3.00394900       1.51044900      -2.11071400
C        4.39655300       2.35674100      -0.32555800
C        4.13440700       1.00027300      -2.75135000
H        2.01883600       1.37625900      -2.54878500
C        5.53075700       1.84815800      -0.96688600
H        4.49453200       2.88225600       0.62156400
C        5.40157600       1.17230100      -2.18297800
H        4.02865400       0.46793400      -3.69317800
H        6.51091300       1.97579400      -0.51497800
H        6.28084900       0.77146200      -2.68011200
C        1.43626900       4.05227100      -1.03064700
C        0.28776900       4.71276300      -0.41696200
H        2.27839000       4.75117700      -1.11184100
H        1.18633200       3.72497800      -2.04805700
C       -0.66892300       5.22594700       0.11579100
H       -1.51305600       5.67679900       0.58940300
Cl       0.79579700       2.22065600       2.75683000
Cl      -2.06908200       2.03499800       1.58967900
O       -0.97473600       0.45821600      -0.56188100
O        0.14667100      -0.29608000       1.66580700
C       -1.75061500      -1.59353400       0.18965800
C       -0.33742700      -2.01829100       0.15689000
C        1.93890700      -1.55922300       0.85206700
C       -3.27752300       0.06543500      -0.68010900
C       -4.38903100      -0.75030000      -0.33646700
C       -2.80943000      -2.41058200       0.57007500
C       -4.10897200      -1.94840300       0.31867300
C        0.09898800      -3.08741800      -0.62740100
C        1.46888400      -3.37857100      -0.62966800
C        2.41895000      -2.65663900       0.09074200
H       -4.92589300      -2.58400800       0.63633200
H        1.79066800      -4.20722100      -1.24751400
C        3.91091000      -3.02446500       0.04698700
C        2.72707500      -0.68759800       1.63254100
N       -2.01658800      -0.36009500      -0.33693000
N        0.58795900      -1.29957300       0.84863800
C       -3.32738900       1.29687700      -1.37570000
C       -5.83343600      -0.32350100      -0.64311400
C       -6.03160900      -0.20054800      -2.17402400
C       -6.85349700      -1.35962800      -0.13023200
C       -6.14591300       1.01894700       0.06283100
H       -5.84866300      -1.16622100      -2.65938300
H       -7.07009500       0.09191100      -2.36591600
H       -5.37617400       0.54944900      -2.61985100
H       -7.85694600      -0.99972000      -0.37682000
H       -6.71423600      -2.33606200      -0.60820200
H       -6.79494900      -1.48254300       0.95727200
H       -7.18511700       1.29044900      -0.15367600
H       -6.03361800       0.91148100       1.14769100
H       -5.50061500       1.82999600      -0.27907600
C       -3.34778200       2.32554400      -2.01148400
H       -3.38082300       3.24437500      -2.55675500
C        3.38781800       0.07776000       2.29488700
H        3.97773400       0.75491900       2.87348900
C        4.71969000      -1.84763800      -0.54809500
C        4.40697400      -3.37685200       1.47076200
C        4.16699100      -4.25531600      -0.84581400
H        4.63323000      -0.93434100       0.04083600
H        5.77613100      -2.13607900      -0.58483300
H        4.38413300      -1.63134800      -1.56703000
H        4.31243700      -2.53910500       2.16331300
H        3.84787900      -4.23169900       1.86853700
H        5.46507400      -3.65378500       1.40786800
H        3.87399500      -4.07023000      -1.88552800
H        5.24062300      -4.46662500      -0.83006700
H        3.64022400      -5.14328100      -0.47777900
C       -0.83833500      -3.90123400      -1.47715100
H       -1.21380300      -4.76267400      -0.91278100
H       -1.69809900      -3.31716100      -1.81408900
H       -0.30238200      -4.28380800      -2.34971600
C       -2.60484600      -3.73668600       1.24865700
H       -3.15059000      -3.74023700       2.19889300
H       -3.01409100      -4.54505700       0.63264900
H       -1.55264100      -3.94351800       1.45297000
