71
Properties=species:S:1:pos:R:3 pbc="F F F"
Si      -0.30978800       1.29102800       1.35959700
O        0.25875200       2.43623000       0.33798000
C        0.02266900       2.69830400      -1.07310300
C        1.00294600       1.92750500      -1.92657800
H       -1.00022000       2.41471100      -1.32989900
C        2.38034100       2.00806700      -1.67967100
C        0.53984000       1.14391700      -2.98940400
C        3.28157200       1.31506100      -2.48957700
H        2.74307900       2.60699300      -0.84902200
C        1.44071700       0.44468300      -3.79847900
H       -0.52944200       1.07907400      -3.17547600
C        2.81427000       0.52915100      -3.54910300
H        4.34687500       1.38857400      -2.29483600
H        1.07209500      -0.16258800      -4.62119400
H        3.51747600      -0.01044000      -4.17818300
C        0.18016100       4.22274600      -1.26716600
C       -0.82559100       4.99374200      -0.53986700
H        0.10515800       4.42834600      -2.34257600
H        1.18967800       4.51344000      -0.95064400
C       -1.67553300       5.60483900       0.06572000
H       -2.42054100       6.15086400       0.60196400
Cl       0.49091000       2.21945100       3.13640700
Cl      -2.29935000       1.23068500       2.07403100
O       -0.86378800       0.25831900      -0.23661500
O        0.63641100      -0.17858100       1.79745200
C       -0.94817400      -1.99604600       0.29533700
C        0.51853500      -2.00751100       0.30916200
C        2.61017900      -0.97845900       0.87732700
C       -2.92469100      -0.81248400      -0.36228400
C       -3.74363300      -1.94282500      -0.15686100
C       -1.71486300      -3.13941000       0.48958700
C       -3.08926800      -3.10018100       0.29714300
C        1.22131800      -3.00295100      -0.36477700
C        2.60690300      -2.99267000      -0.39795300
C        3.35705800      -1.97718600       0.21836800
H       -1.22363200      -4.05230300       0.80471600
H       -3.65909500      -3.99903900       0.48818400
H        0.65874900      -3.77371900      -0.87807900
H        3.11247700      -3.78832500      -0.92742500
C        4.89325100      -1.98645500       0.20156200
C        3.17646700       0.14338800       1.55318300
N       -1.57797900      -0.85120900      -0.08261100
N        1.23544000      -1.03767900       0.93074300
C       -3.35228900       0.43373000      -0.91561100
C       -5.25781900      -1.90898400      -0.40181500
C       -5.90228500      -0.80237200       0.47084700
C       -5.53897700      -1.65806600      -1.90430100
C       -5.91954500      -3.24739600      -0.01766600
H       -5.55539200       0.19936100       0.20907300
H       -6.98585000      -0.83445500       0.31677300
H       -5.69519100      -0.98284700       1.53119300
H       -6.62386300      -1.66275300      -2.05316500
H       -5.15503300      -0.69611700      -2.24981200
H       -5.10048200      -2.45613000      -2.51339800
H       -5.77234100      -3.48160100       1.04267000
H       -6.99442700      -3.15669300      -0.19977000
H       -5.54198400      -4.07766000      -0.62481600
N       -3.68694600       1.42247900      -1.42273000
N        3.66453700       1.05749900       2.07499500
C        5.43232600      -0.71934100      -0.50372300
C        5.42250700      -2.07637800       1.65614500
C        5.43565200      -3.20829400      -0.56692800
H        5.11991000       0.20488000      -0.01521500
H        6.52642300      -0.76005500      -0.48493600
H        5.10067800      -0.69590700      -1.54593400
H        5.15619100      -1.20568300       2.25858100
H        5.04174900      -2.97872100       2.14669800
H        6.51495800      -2.13720200       1.61568000
H        5.11909200      -3.19907100      -1.61601800
H        6.52829100      -3.16390400      -0.54250500
H        5.12448600      -4.15185200      -0.10483600
