71
Properties=species:S:1:pos:R:3 pbc="F F F"
Si      -0.28907100       1.20071000       1.02555900
O        0.66758200       1.72939900      -0.19081800
C        1.72135200       2.71743300      -0.26258500
C        2.90054500       2.12065200      -0.99737200
H        2.02470100       3.01223700       0.74476600
C        2.72210500       1.44382600      -2.21241500
C        4.19346800       2.29801400      -0.49325300
C        3.82571500       0.95581100      -2.91456000
H        1.71792300       1.29851300      -2.60077900
C        5.30007000       1.81422400      -1.19832100
H        4.33198200       2.81248700       0.45436900
C        5.11779600       1.14497800      -2.41131700
H        3.67970600       0.43024400      -3.85477900
H        6.30006400       1.95372200      -0.79657700
H        5.97620200       0.76307600      -2.95737900
C        1.17215600       3.95457400      -1.01188800
C        0.05216900       4.58328600      -0.31755400
H        1.99782800       4.66810500      -1.12714500
H        0.86850300       3.64231700      -2.01928800
C       -0.87828500       5.06884700       0.28282200
H       -1.70171300       5.49703500       0.81089200
Cl       0.62577300       2.10040900       2.76712800
Cl      -2.23613100       1.80062700       1.57368100
O       -1.11494600       0.23087800      -0.54977400
O        0.11431200      -0.42850800       1.65489500
C       -1.72685200      -1.89422200       0.15002800
C       -0.29799400      -2.22489800       0.20400100
C        1.94027900      -1.62684500       0.83002600
C       -3.37464400      -0.34101100      -0.62414100
C       -4.42940700      -1.24265500      -0.36236200
C       -2.73041500      -2.82079800       0.40112300
C       -4.05937600      -2.48500600       0.17780600
C        0.20572400      -3.34662900      -0.44629600
C        1.57079200      -3.59216200      -0.47031800
C        2.49340600      -2.73162200       0.14785700
H       -2.45880500      -3.79762800       0.78411000
H       -4.81941300      -3.21776400       0.41211900
H       -0.48698000      -3.99946600      -0.96394100
H        1.92401100      -4.46660700      -0.99997000
C        4.00508800      -2.99125800       0.09090500
C        2.69778300      -0.67817300       1.57861300
N       -2.07147300      -0.66234200      -0.31823900
N        0.58136100      -1.41542400       0.84387800
C       -3.51695500       0.92709700      -1.26770200
C       -5.89602500      -0.89104400      -0.64955000
C       -6.09707900      -0.69515600      -2.17342100
C       -6.84244700      -2.01958800      -0.19519900
C       -6.29221000       0.38984600       0.12734400
H       -5.83602500      -1.61226200      -2.71328900
H       -7.15494600      -0.47541400      -2.35294200
H       -5.50788100       0.13250100      -2.57318500
H       -7.86905500      -1.70590500      -0.40469500
H       -6.65432800      -2.95081300      -0.74113900
H       -6.75748300      -2.20969800       0.88057400
H       -5.72353300       1.26811000      -0.18446400
H       -7.35176600       0.59051300      -0.06311100
H       -6.15363400       0.24134000       1.20378800
N       -3.64522000       1.92570100      -1.84475400
N        3.34323100       0.06948200       2.18709400
C        4.71918300      -1.78324800      -0.56298700
C        4.54366800      -3.25328800       1.51995500
C        4.32581400      -4.23320600      -0.76426700
H        4.58850400      -0.85145000      -0.01153300
H        5.79135400      -2.00230800      -0.60398800
H        4.35714900      -1.63189000      -1.58418400
H        4.41843400      -2.39541800       2.18325100
H        4.04414300      -4.12184400       1.96332900
H        5.61463000      -3.46890200       1.44476400
H        3.97908800      -4.11120300      -1.79674500
H        5.41238000      -4.35724700      -0.78294300
H        3.88862900      -5.14469000      -0.34155600
