71
Properties=species:S:1:pos:R:3 pbc="F F F"
Si      -0.07529000       0.91455300       1.21622900
O        0.48274700       1.95805200       0.09221100
C       -0.10811600       2.46114100      -1.13976200
C       -0.81976100       3.76564100      -0.86483000
H       -0.82133700       1.73350800      -1.53140700
C       -0.15482600       4.82879600      -0.23741300
C       -2.15506700       3.92015200      -1.25375300
C       -0.81998800       6.03361100      -0.00530600
H        0.87627200       4.70468100       0.08183800
C       -2.82104200       5.12908800      -1.02645800
H       -2.67478200       3.08909100      -1.72413500
C       -2.15414900       6.18724200      -0.40270600
H       -0.30070400       6.85220700       0.48611900
H       -3.85915600       5.24002700      -1.32862500
H       -2.67118600       7.12577700      -0.22062500
C        1.04533200       2.63489200      -2.15042100
C        1.65297500       1.37169100      -2.56617600
H        0.64106400       3.15250100      -3.02943200
H        1.80032900       3.29538200      -1.70582300
C        2.13616700       0.32514000      -2.93321900
H        2.56138400      -0.59228200      -3.27561500
Cl      -2.06044900       0.77770700       1.89894600
Cl       0.65917200       1.94097600       2.95739900
O       -0.63640500      -0.25601200      -0.37875900
O        0.97678100      -0.47149300       1.62858400
C       -0.39889500      -2.47829100       0.21859100
C        1.05230400      -2.28151000       0.13038600
C        2.98628200      -0.91898300       0.53506400
C       -2.54778300      -1.58663700      -0.34769000
C       -3.19330100      -2.81032100      -0.06726700
C       -0.99027100      -3.70663700       0.48590000
C       -2.36691300      -3.85604200       0.37649000
C        1.84605600      -3.14461500      -0.61832300
C        3.19674000      -2.88464400      -0.79718200
C        3.81512900      -1.74843100      -0.24925600
H       -0.36128800      -4.53627300       0.78816100
H       -2.79927000      -4.81706100       0.61937700
H        1.37725700      -3.99884400      -1.09191600
H        3.77365800      -3.57233900      -1.40020700
C        5.30468600      -1.44957800      -0.47799300
C        3.43715200       0.24051000       1.23308500
N       -1.19353300      -1.43340400      -0.14944500
N        1.65397800      -1.21266800       0.70907600
C       -3.17197100      -0.43209800      -0.91260300
C       -4.70749100      -2.99130300      -0.24082600
C       -5.46348800      -1.95968200       0.63406100
C       -5.08329900      -2.82677800      -1.73568300
C       -5.15970000      -4.39651900       0.20181200
H       -5.25239600      -0.92662000       0.34976800
H       -6.53841600      -2.13000900       0.51209400
H       -5.20720400      -2.09462100       1.69048200
H       -6.16104300      -2.99307900      -1.83739600
H       -4.85806600      -1.83028200      -2.12069400
H       -4.55765900      -3.57077800      -2.34436600
H       -4.92860200      -4.58260700       1.25663200
H       -6.24420700      -4.45895900       0.07472500
H       -4.70109200      -5.18106100      -0.41015200
N       -3.67229500       0.47879300      -1.42906800
N        3.83817900       1.17531300       1.79104300
C        5.48066600      -0.05843000      -1.13625100
C        6.05735000      -1.51614800       0.87561100
C        5.94434900      -2.49120300      -1.41780200
H        5.11381900       0.75780400      -0.51217700
H        6.55084600       0.10113300      -1.30375100
H        4.96533900      -0.02054700      -2.10091400
H        5.71540700      -0.76083500       1.58596300
H        5.94499900      -2.50762200       1.32759700
H        7.12067100      -1.34085000       0.68138900
H        5.46321600      -2.49880100      -2.40248500
H        6.99510900      -2.22059900      -1.55536500
H        5.90875300      -3.50032100      -0.99214400
