71
Properties=species:S:1:pos:R:3 pbc="F F F"
Si       0.67902600      -0.81328100       0.97553200
O        1.51864600      -2.09710100       0.48215400
C        2.90225300      -2.48624100       0.78808000
C        3.61356400      -2.83227200      -0.49491500
H        3.40658700      -1.64867900       1.27872900
C        3.06623300      -3.76093600      -1.39213800
C        4.85640300      -2.25327500      -0.77265100
C        3.75614400      -4.10040500      -2.55711900
H        2.09780900      -4.20755400      -1.18316300
C        5.55213600      -2.59957100      -1.93492400
H        5.27437800      -1.52510600      -0.08287500
C        5.00234200      -3.52248600      -2.82900100
H        3.32509500      -4.81691000      -3.25128600
H        6.51655800      -2.14434900      -2.14341400
H        5.53939100      -3.78976100      -3.73523200
C        2.84069400      -3.68561300       1.75789800
C        2.15459600      -3.36410700       3.00642200
H        3.87251400      -4.00087000       1.95734700
H        2.33971100      -4.51853700       1.24944600
C        1.56858300      -3.05114900       4.01675600
H        1.05545300      -2.78530900       4.91509700
Cl       1.53028000       0.38329000       2.40449700
Cl      -1.20907900      -1.37600200       1.53075700
O        0.56982600       0.13532000      -0.48460500
O       -3.08186400       1.98947000       1.16360100
C       -0.95202600       1.94633500      -0.50031000
C       -2.06705000       1.00673600      -0.66733800
C       -4.24505300       0.32534700       0.05313500
C        1.43684300       2.30989400      -0.43792100
C        1.29195400       3.70623400      -0.37294600
C       -1.12211900       3.33130300      -0.45015900
C       -0.03352000       4.18252100      -0.37601700
C       -2.12641400       0.05877000      -1.67997500
C       -3.23901500      -0.75615900      -1.83079800
C       -4.33431400      -0.65207400      -0.96112200
H       -2.13177000       3.71911800      -0.48031100
H       -0.21814700       5.24754900      -0.34026000
H       -1.28534900      -0.03140300      -2.35693900
H       -3.24686300      -1.47785400      -2.63506800
C       -5.56376000      -1.56364400      -1.10515600
C       -5.24101400       0.58256900       1.04109300
N        0.32577000       1.48877700      -0.44781500
N       -3.12746900       1.14950300       0.20933100
C        2.68358900       1.62242200      -0.52301400
C        2.49621300       4.65709400      -0.30144300
C        3.34639100       4.53078000      -1.59060100
C        2.04022700       6.12509700      -0.18367800
C        3.34355600       4.33029600       0.95392300
H        2.74147800       4.76898000      -2.47225900
H        4.16812900       5.25180100      -1.52820100
H        3.77983000       3.53657000      -1.71636100
H        2.93378100       6.75200900      -0.11388100
H        1.46908300       6.44529400      -1.06203700
H        1.43784900       6.29013300       0.71650100
H        3.76460400       3.32308100       0.93151800
H        4.17514800       5.04122000       0.99955000
H        2.74023000       4.44242400       1.86120700
N        3.70235500       1.07313700      -0.61203800
N       -6.05814500       0.78453900       1.84195900
C       -5.73005000      -2.42442900       0.17213700
C       -6.83083100      -0.70976600      -1.35993400
C       -5.41501900      -2.53159500      -2.29568400
H       -5.89739500      -1.82231400       1.06757700
H       -6.59802100      -3.07895800       0.03652500
H       -4.84398900      -3.05044900       0.32664900
H       -7.06149000      -0.03738300      -0.53126000
H       -6.71251400      -0.11818700      -2.27469700
H       -7.68169200      -1.38698900      -1.49286500
H       -4.55268000      -3.19592500      -2.17106200
H       -6.31644500      -3.14974800      -2.34547200
H       -5.31770100      -1.99313400      -3.24513100
