71
Properties=species:S:1:pos:R:3 pbc="F F F"
Si      -0.15482600      -1.72231300      -0.62297100
O        1.43337500      -1.63167000      -0.22371200
C        2.31886100      -1.75199800       0.92003400
C        1.99331600      -0.72287900       1.98349300
H        3.30018200      -1.51796500       0.49841300
C        0.76771800      -0.73186900       2.66601300
C        2.93974000       0.25652100       2.30558600
C        0.48086600       0.25119200       3.61579300
H        0.03595400      -1.50471900       2.45734300
C        2.66428900       1.23039400       3.26933100
H        3.90000300       0.25401600       1.79901900
C        1.42668200       1.23778000       3.91746300
H       -0.47559100       0.23755400       4.13147300
H        3.41094900       1.98400900       3.50408800
H        1.20366700       1.99854600       4.66054700
C        2.40771100      -3.18055300       1.50278100
C        2.75518600      -4.18468400       0.50182100
H        3.18743400      -3.14033100       2.27505400
H        1.47255500      -3.44554000       2.00375100
C        3.04933300      -4.99685200      -0.34434200
H        3.30132900      -5.72091700      -1.08798100
Cl      -0.72732300      -2.50159900      -2.48177800
Cl      -0.78695000      -3.44360100       0.54205800
O       -1.32718500      -0.79534200       0.38788000
O        0.06609300      -0.06264400      -1.63343300
C       -1.37470000       1.53922600       0.01174200
C        0.08652700       1.64813600      -0.05848800
C        2.06426800       1.08631300      -1.28669500
C       -3.37284200       0.20874100       0.02084300
C       -4.20876400       1.33982900      -0.07358800
C       -2.17009300       2.68071700      -0.05757600
C       -3.55245100       2.58220900      -0.08909700
C        0.80514400       2.61620300       0.63312300
C        2.15232100       2.80575300       0.36380100
C        2.82559800       2.07451300      -0.62967100
H       -1.68180200       3.64576400      -0.12145400
H       -4.12956800       3.49480800      -0.14894100
H        0.29897000       3.20973100       1.38463100
H        2.68475200       3.55661500       0.93074800
C        4.28781600       2.36762300      -0.99785400
C        2.53558100       0.24100200      -2.33717600
N       -2.00300500       0.33790400       0.07891900
N        0.74110000       0.88851600      -0.97521700
C       -3.83280100      -1.14085200       0.09426000
C       -5.73856300       1.23185900      -0.15101400
C       -6.14197700       0.42220200      -1.40904500
C       -6.28571900       0.56038100       1.13407900
C       -6.39116800       2.62405200      -0.26186500
H       -5.78761800      -0.60993000      -1.37876700
H       -7.23530800       0.40116900      -1.46270000
H       -5.75841400       0.90425700      -2.31472400
H       -7.37820200       0.53352600       1.06415200
H       -5.93175300      -0.46449700       1.26053900
H       -6.00880800       1.14496600       2.01806100
H       -6.06783800       3.15239000      -1.16568900
H       -7.47453500       2.48504700      -0.31858100
H       -6.17478900       3.24491900       0.61483300
N       -4.22943200      -2.23022900       0.14341400
N        2.92697700      -0.41432700      -3.21102100
C        5.17419900       1.10584200      -0.85841200
C        4.33213400       2.89529200      -2.45519500
C        4.88664300       3.45356200      -0.08259000
H        4.84759900       0.27839000      -1.48992000
H        6.19183500       1.37531100      -1.15983600
H        5.20627700       0.76744400       0.18150900
H        3.98292100       2.15351700      -3.17740700
H        3.72415600       3.80142900      -2.55328000
H        5.37071000       3.14385800      -2.69798800
H        4.87579300       3.14383300       0.96851000
H        5.92687800       3.61324500      -0.38055700
H        4.35558800       4.40663000      -0.18189200
