71
Properties=species:S:1:pos:R:3 pbc="F F F"
Si       0.73103900      -0.78747800       1.04154400
O        1.38202400      -2.20803100       0.64944300
C        0.85634600      -3.56843300       0.80752900
C        1.08831400      -4.31975800      -0.47878200
H       -0.21635400      -3.51072000       1.01452900
C        2.37299900      -4.41210500      -1.03361500
C        0.01439500      -4.95403300      -1.11355700
C        2.57738900      -5.13033800      -2.21267200
H        3.20681100      -3.91099100      -0.54975600
C        0.21992300      -5.68079300      -2.29068600
H       -0.98228500      -4.87966500      -0.68437000
C        1.50131900      -5.76846900      -2.84196400
H        3.57432200      -5.19440400      -2.64034700
H       -0.61854300      -6.17248600      -2.77656400
H        1.66232700      -6.32976900      -3.75849400
C        1.57065500      -4.21703900       2.01062800
C        1.29455400      -3.50977800       3.25815200
H        1.22958400      -5.25773700       2.07637400
H        2.64874200      -4.23909400       1.80937400
C        1.03404200      -2.87752500       4.25545000
H        0.81416300      -2.32961900       5.14561400
Cl       1.77507500       0.31915200       2.41327100
Cl      -1.25199900      -0.89213700       1.56028600
O        0.87324400       0.04633600      -0.47950300
O       -1.91708000       3.00551500       1.10990100
C        0.01101900       2.23755800      -0.61704700
C       -1.34479800       1.67901600      -0.69371200
C       -3.58100200       1.70864000       0.15478300
C        2.39253400       1.82327700      -0.60376000
C        2.69907600       3.19398800      -0.65440400
C        0.28787900       3.60436500      -0.66765500
C        1.59334400       4.06584100      -0.67543400
C       -1.73745600       0.75069700      -1.64786900
C       -3.04716500       0.29655200      -1.70418800
C       -4.01035500       0.75565900      -0.79403900
H       -0.54703100       4.29170400      -0.71053600
H        1.75781600       5.13396900      -0.71865700
H       -0.99853400       0.38637300      -2.35214200
H       -3.31274500      -0.42367300      -2.46497800
C       -5.45723400       0.23695300      -0.82746300
C       -4.39964400       2.29667700       1.16354900
N        1.07911600       1.40331300      -0.54496300
N       -2.26369400       2.17195500       0.21387200
C        3.34734900       0.76311400      -0.62032700
C        4.14393100       3.71255000      -0.68626200
C        4.89522900       3.24310000       0.58477400
C        4.85642100       3.20447400      -1.96442400
C        4.18326300       5.25352600      -0.70988000
H        4.97839900       2.15615500       0.65007500
H        5.90846800       3.65702500       0.55380200
H        4.39450200       3.61498800       1.48505200
H        5.87092600       3.61642400      -1.97523600
H        4.93527900       2.11588100      -1.99966300
H        4.33029900       3.55213400      -2.86003900
H        3.70824600       5.68431100       0.17862200
H        5.23209600       5.56380200      -0.71896700
H        3.70166600       5.65745200      -1.60750100
N        4.11494400      -0.10731600      -0.64673400
N       -5.07473700       2.77126500       1.98141400
C       -5.79123700      -0.46995300       0.50991400
C       -6.43490600       1.41043300      -1.08666100
C       -5.66449200      -0.79253800      -1.95602400
H       -5.73378700       0.20248400       1.36820300
H       -6.81442100      -0.85673200       0.44974300
H       -5.11063600      -1.31303400       0.67399500
H       -6.41345000       2.16004800      -0.29326700
H       -6.20139000       1.89572600      -2.04092500
H       -7.45179300       1.00664100      -1.14258800
H       -5.02618500      -1.67314900      -1.82262500
H       -6.70765400      -1.12143800      -1.92854600
H       -5.47073400      -0.35618600      -2.94222400
