77
Properties=species:S:1:pos:R:3 pbc="F F F"
Si      -0.08433700       1.57335400       1.41387700
O        0.68822900       1.63188500       0.00038300
C        1.65978300       2.54659800      -0.57633300
C        2.63176900       1.75549300      -1.42172900
H        2.19240000       3.05151800       0.23614800
C        2.21999900       0.62751200      -2.14294500
C        3.94956400       2.21245500      -1.54544600
C        3.12374500      -0.03954200      -2.97372800
H        1.19766600       0.27586400      -2.05218600
C        4.84734900       1.55434800      -2.38985300
H        4.27331700       3.08352000      -0.98060900
C        4.43667400       0.42462700      -3.10466100
H        2.79961200      -0.91956700      -3.52323900
H        5.86864700       1.91430300      -2.47758900
H        5.13726700      -0.09433000      -3.75302800
C        0.90217700       3.59569700      -1.42119500
C        0.01426200       4.41763200      -0.60423300
H        1.64918700       4.22169900      -1.92436700
H        0.33595100       3.06837400      -2.19912900
C       -0.70657900       5.05738900       0.12592500
H       -1.34985500       5.62966300       0.75800500
Cl       0.71470600       2.70561300       2.91112200
Cl      -2.11024200       1.84551200       1.30801800
O       -1.18002100      -0.29806100      -1.91790200
O        0.09705500      -0.09601600       1.89816500
C       -1.46541100      -1.39626500       0.08441100
C       -0.00284700      -1.59480500       0.08859700
C        2.08320600      -1.13659500       1.21624500
C       -3.34277200      -0.53936400      -1.12439400
C       -4.23993100      -0.99682100      -0.13591100
C       -2.30958900      -1.88944100       1.07903000
C       -3.68444500      -1.68271700       0.94757500
C        0.66667100      -2.47191700      -0.77943500
C        2.04207200      -2.63945200      -0.62653700
C        2.79734500      -1.99933800       0.36549500
H       -4.32622700      -2.07540900       1.72441100
H        2.53714600      -3.31786000      -1.30888600
C        4.30617600      -2.23681100       0.51894200
C        2.63880200      -0.41970300       2.31531300
N       -1.96864100      -0.73911500      -1.01659000
N        0.73495800      -0.95338100       1.02896900
C       -3.69645200       0.17443100      -2.30550300
C       -5.75316200      -0.74437900      -0.23401200
C       -6.32290000      -1.40629800      -1.51259300
C       -6.50860100      -1.34101600       0.97040100
C       -6.02427700       0.78091800      -0.23875200
H       -6.13699300      -2.48620100      -1.49643300
H       -7.40572900      -1.24085300      -1.53507200
H       -5.89927500      -0.98858000      -2.42825100
H       -7.57367500      -1.12225700       0.84693100
H       -6.38812900      -2.42880800       1.02559600
H       -6.17678600      -0.89684400       1.91554200
H       -5.57619500       1.28609900      -1.09710400
H       -7.10741700       0.93996100      -0.27928100
H       -5.63993700       1.23765400       0.68025700
N       -3.99341300       0.75694400      -3.26627500
N        3.09366500       0.15004000       3.21864300
C        5.06817700      -0.89420400       0.39754600
C        4.58388700      -2.90970500       1.88587500
C        4.84029600      -3.17245900      -0.58351300
H        4.83961300      -0.20224000       1.21007200
H        6.14163100      -1.10817600       0.43337700
H        4.84042200      -0.40898100      -0.55502400
H        4.27863000      -2.28778100       2.73060500
H        4.06633500      -3.87315800       1.94927000
H        5.66145600      -3.08695800       1.96842500
H        4.68099400      -2.75171100      -1.58245700
H        5.91702300      -3.29074600      -0.43176100
H        4.38038300      -4.16574500      -0.53254800
C       -0.08875900      -3.20846300      -1.84339200
H       -1.04688800      -3.57641800      -1.46227900
H       -0.30567500      -2.52236400      -2.67114800
H        0.50100400      -4.04762100      -2.21843500
C       -1.75452900      -2.62652400       2.26651200
H       -1.35753100      -1.91374800       2.99924900
H       -2.54177000      -3.21033600       2.74937600
H       -0.94007600      -3.29960500       1.97730300
