89
Properties=species:S:1:pos:R:3 pbc="F F F"
Si       0.26367500       1.05473100      -0.12148400
O       -1.10277500       1.92468600      -0.50360700
C       -2.38376100       2.09376800       0.10451900
C       -2.92141400       3.45816400      -0.28294700
H       -3.04451400       1.31772000      -0.28425100
C       -2.12316300       4.60196900      -0.14007100
C       -4.23674100       3.59212100      -0.73847300
C       -2.63663500       5.86184800      -0.45383400
H       -1.09900200       4.49447300       0.20633400
C       -4.75485800       4.85435100      -1.04866100
H       -4.85313100       2.70537800      -0.85406600
C       -3.95531300       5.99202100      -0.90746300
H       -2.00959400       6.74329200      -0.34521800
H       -5.77758500       4.94633800      -1.40564900
H       -4.35367700       6.97334700      -1.15209700
C       -2.36592500       1.98863200       1.65826200
C       -1.77299300       0.75847400       2.16986100
H       -3.40604900       2.07283300       1.99531600
H       -1.81273500       2.84353200       2.06207900
C       -1.24650700      -0.24590300       2.59432100
H       -0.78614800      -1.12983800       2.97737500
Cl       1.36272200       1.36011400      -1.90081900
Cl       0.98213100       2.55080300       1.30326800
O        1.37291000      -0.09047200       0.79082300
O       -0.68158000      -0.49923400      -0.75294900
C        1.64869300      -2.05460300      -0.40814700
C        0.30812300      -2.47730400       0.01607700
C       -2.08772800      -2.20759600      -0.00985800
C        3.50716500      -0.53811200      -0.09338300
C        4.35844800      -1.38181600      -0.84807900
C        2.45348900      -2.88300300      -1.17151900
C        3.77545700      -2.53161800      -1.40537300
C        0.15404200      -3.72882800       0.59224900
C       -1.11205600      -4.23537000       0.82734000
C       -2.26892200      -3.53418100       0.45368900
H        2.03775700      -3.80137800      -1.56794900
H        4.36807300      -3.20461100      -2.00882600
H        1.04011900      -4.30737700       0.82337100
H       -1.18249300      -5.22154200       1.26347800
C       -3.63310400      -4.27560100       0.53799800
C       -3.20289600      -1.29915600      -0.36578800
N        2.18785100      -0.90021600       0.05746100
N       -0.80390700      -1.72114000      -0.20736000
C        3.92964600       0.66256100       0.67082300
C        5.86151400      -1.10057500      -1.09249200
C        6.61443700      -0.65598200       0.18658300
C        6.58541300      -2.36700900      -1.61104200
C        5.99908000      -0.01574700      -2.18824800
H        6.43078200      -1.35218900       1.01253800
H        7.68692800      -0.66222500      -0.03584600
H        6.34649700       0.34923200       0.50821800
H        7.65168100      -2.13653800      -1.69140800
H        6.46578800      -3.21199800      -0.92322600
H        6.24282600      -2.66467100      -2.60797000
H        5.60217600       0.94525500      -1.85918200
H        7.06316300       0.11339000      -2.41757100
H        5.48065700      -0.32169600      -3.10407000
C        4.19879800       1.88626700       0.05266700
C        4.10809000       0.52224500       2.05496100
C        4.89069500       2.80713800       2.18201400
C        4.59274400       1.59073000       2.80577900
C        4.68392100       2.95427800       0.80882900
H        4.01056500       2.01232600      -1.00553000
H        4.89165600       3.90301000       0.32263200
H        5.27304300       3.63887600       2.76715600
H        4.74081300       1.47301900       3.87544500
H        3.89038300      -0.42844500       2.53296400
C       -3.44250100      -0.97550600      -1.70893500
C       -4.08461200      -0.85260300       0.62572600
C       -5.48693300       0.15119500      -1.06901100
C       -5.22666100      -0.13254800       0.27378100
C       -4.58388300      -0.25593400      -2.05737000
H       -2.75077200      -1.30790400      -2.47586100
H       -4.77186000      -0.01743400      -3.09997000
H       -6.38127700       0.70232600      -1.34540800
H       -5.90767300       0.20790000       1.04810900
H       -3.86670500      -1.05401100       1.66600000
C       -4.59853200      -3.92471900      -0.62165400
H       -5.03635000      -2.93239400      -0.53079600
H       -4.09219600      -4.00089300      -1.59016600
H       -5.41900100      -4.64997000      -0.60741800
C       -4.31102200      -3.99314800       1.89921500
H       -5.19625700      -4.63374200       1.98701400
H       -3.63137600      -4.22782600       2.72638700
H       -4.63347300      -2.95501000       1.98703000
C       -3.40652500      -5.81084000       0.45477100
H       -2.91818500      -6.21341500       1.34787000
H       -4.38574200      -6.29326100       0.38396600
H       -2.81953300      -6.08442500      -0.42920000
