89
Properties=species:S:1:pos:R:3 pbc="F F F"
Si       0.11196700       0.70553700       1.23604100
O        0.14707500       1.91514400       0.12066100
C       -0.73146600       2.27235600      -0.95739500
C       -1.44526800       3.57767000      -0.64010300
H       -1.47818400       1.48954400      -1.11675500
C       -1.19617300       4.29927200       0.53276700
C       -2.39377500       4.06618200      -1.55132000
C       -1.88580900       5.49030100       0.78838100
H       -0.46901200       3.92836800       1.24729500
C       -3.08013600       5.25445900      -1.29808200
H       -2.60705000       3.50679000      -2.45787900
C       -2.82766700       5.97272100      -0.12353200
H       -1.68415400       6.03921500       1.70485500
H       -3.81397800       5.61644500      -2.01376600
H       -3.36238500       6.89738300       0.07766100
C        0.12919600       2.41264700      -2.23827300
C        0.73055700       1.15799200      -2.68379500
H       -0.50512300       2.81788600      -3.03501300
H        0.91215600       3.15622000      -2.03970300
C        1.23176400       0.11767600      -3.04380000
H        1.67134900      -0.80173900      -3.36149600
Cl      -1.53440500       0.30768200       2.51997500
Cl       1.15286400       1.92957300       2.73349400
O       -0.57330400      -0.42564200      -0.12898700
O        1.39778500      -0.49078100       1.49168400
C       -0.21069100      -2.61102300       0.54068600
C        1.20668600      -2.43542800       0.19782100
C        3.17254100      -1.02350400       0.07886500
C       -2.45173600      -1.80123800       0.09670000
C       -3.00290100      -3.02275200       0.52623600
C       -0.73143400      -3.81889000       0.98299100
C       -2.10435700      -3.99270900       1.01486000
C        1.85547300      -3.38814200      -0.57036800
C        3.14995800      -3.15816600      -1.01561700
C        3.83737900      -1.96530100      -0.74161900
H       -0.05368300      -4.60908000       1.28323600
H       -2.49110900      -4.93742400       1.37548900
H        1.32076200      -4.28806000      -0.84964700
H        3.61389100      -3.92820900      -1.61609200
C        5.23929000      -1.72699300      -1.34777600
C        3.70292000       0.28519700       0.54393000
N       -1.08635400      -1.62489200       0.20021700
N        1.90645200      -1.31561200       0.52723800
C       -3.14017300      -0.69479400      -0.62473500
C       -4.49080200      -3.43643900       0.47790100
C       -5.49200700      -2.39330300      -0.04932100
C       -4.60080000      -4.68258600      -0.43982900
C       -4.93661100      -3.80452000       1.91692200
H       -5.27080200      -2.08197900      -1.07257600
H       -6.48135100      -2.86387000      -0.04086400
H       -5.53351300      -1.50883000       0.58937600
H       -5.64453700      -5.01446700      -0.45876500
H       -4.29563800      -4.43289100      -1.46269900
H       -3.98441800      -5.51430400      -0.08437800
H       -4.85524600      -2.93358000       2.57684000
H       -5.98453800      -4.12239600       1.88655600
H       -4.34870200      -4.62281200       2.34358700
C       -3.85241300       0.31999700       0.02100700
C       -3.03365500      -0.69325700      -2.02305700
C       -4.38343000       1.31118600      -2.12365900
C       -3.65916800       0.30564800      -2.77005700
C       -4.47268700       1.31894900      -0.72919100
H       -3.92759300       0.32285700       1.10090700
H       -5.01978400       2.10774400      -0.22204200
H       -4.86800800       2.09131600      -2.70331400
H       -3.57779300       0.29723400      -3.85319200
H       -2.46726500      -1.47357900      -2.52311600
C        4.40077300       0.37415800       1.75494400
C        3.44945700       1.43521200      -0.21140200
C        4.66278700       2.75590600       1.41357800
C        3.93926200       2.66840400       0.22236100
C        4.88534800       1.60901100       2.18272600
H        4.57115000      -0.51858100       2.34863400
H        5.43376700       1.67571800       3.11791900
H        5.04277400       3.71661600       1.74975500
H        3.74702000       3.55880700      -0.36918500
H        2.87525900       1.35775000      -1.12834900
C        6.29585000      -1.41897400      -0.25948200
H        6.14874900      -0.43928600       0.19307900
H        6.28319000      -2.18287500       0.52607500
H        7.28409500      -1.42724300      -0.73238900
C        5.17712100      -0.55774300      -2.36026100
H        6.15879100      -0.46417800      -2.83859700
H        4.43096500      -0.75305600      -3.13838600
H        4.94224000       0.38912500      -1.87342700
C        5.73397300      -2.97167400      -2.11680200
H        5.08535600      -3.21533400      -2.96579300
H        6.72931300      -2.74877600      -2.51167700
H        5.81553500      -3.84860600      -1.46395700
