89
Properties=species:S:1:pos:R:3 pbc="F F F"
Si      -0.07024500       0.74070000      -0.83958300
O       -0.28954000       1.56807500       0.57395400
C       -0.62332500       2.94628500       0.81394400
C        0.42586000       3.89110600       0.26790500
H       -1.59533700       3.16673200       0.36255000
C        1.78789200       3.59809700       0.40859500
C        0.03744500       5.09469800      -0.32972600
C        2.75041000       4.49905600      -0.05130600
H        2.09606800       2.66211900       0.86424800
C        0.99957500       6.00041500      -0.78467800
H       -1.02090600       5.31452100      -0.44915300
C        2.35966400       5.70330600      -0.64673000
H        3.80472100       4.25944300       0.05515100
H        0.68879800       6.93008300      -1.25432500
H        3.10965200       6.40326100      -1.00589300
C       -0.70957200       3.11719300       2.35220800
C       -1.74233000       2.31500000       3.00429900
H       -0.88959700       4.18062600       2.55349300
H        0.27405600       2.87123100       2.77248300
C       -2.59565000       1.66067400       3.55914100
H       -3.35557600       1.08193000       4.03694700
Cl       1.66462200       0.76207400      -2.06446800
Cl      -1.16362300       2.09105800      -2.19746600
O        0.71770500      -0.50250300       0.37723700
O       -1.14711100      -0.55011600      -1.40502000
C        0.63091500      -2.58587600      -0.63020900
C       -0.81241200      -2.61430700      -0.35476800
C       -2.94542000      -1.47105700      -0.24051000
C        2.75118700      -1.62181000       0.04210800
C        3.44040400      -2.74023800      -0.47130700
C        1.29525800      -3.64718500      -1.22640700
C        2.67789400      -3.69107800      -1.17749700
C       -1.38390300      -3.72222000       0.24925000
C       -2.71906800      -3.69521000       0.62936500
C       -3.53066200      -2.56653200       0.43711400
H        0.72060200      -4.43621600      -1.69696900
H        3.17865300      -4.52531500      -1.65185700
H       -0.76194100      -4.58415500       0.45791500
H       -3.11923700      -4.57630900       1.11138600
C       -4.97021900      -2.54618400       0.99926100
C       -3.62581000      -0.21304500      -0.64345300
N        1.37638400      -1.57451000      -0.10312100
N       -1.62337600      -1.55030700      -0.60486900
C        3.33366500      -0.47800300       0.79192500
C        4.94461900      -3.07174800      -0.31011800
C        5.78514800      -2.13916900       0.58253000
C        5.04728400      -4.48697400       0.32650300
C        5.59057600      -3.09020600      -1.71745800
H        5.34486700      -2.00842700       1.57443100
H        6.76910000      -2.60578900       0.70121600
H        5.93428600      -1.15771300       0.13240400
H        6.10700500      -4.74682400       0.42013400
H        4.59829200      -4.48954700       1.32644600
H        4.56428000      -5.26154900      -0.27601900
H        5.53231900      -2.09928400      -2.18141400
H        6.64600700      -3.36692200      -1.61635300
H        5.11031800      -3.81625500      -2.38156300
C        4.12984500       0.47698400       0.15150400
C        3.07629900      -0.36316800       2.16567800
C        4.43388000       1.63825800       2.25330200
C        3.62896100       0.68970100       2.89378300
C        4.68133700       1.52920300       0.88264300
H        4.32234800       0.39189900      -0.91145700
H        5.30243000       2.26335900       0.37840900
H        4.86038100       2.46142800       2.81958800
H        3.42989200       0.77036200       3.95855700
H        2.44744600      -1.09757100       2.66018600
C       -4.25137600      -0.12866100      -1.89388600
C       -3.60699600       0.89276800       0.21045600
C       -4.91052600       2.14749000      -1.39674600
C       -4.25978900       2.06842500      -0.16390500
C       -4.89626100       1.05046800      -2.26471700
H       -4.24725800      -0.98530500      -2.56075100
H       -5.38847900       1.11150900      -3.23105500
H       -5.41834700       3.06289200      -1.68729800
H       -4.25193200       2.92018900       0.51018900
H       -3.08552000       0.84154700       1.15927900
C       -6.02630300      -2.17964600      -0.07118200
H       -5.97693400      -1.13036500      -0.35896200
H       -5.91180200      -2.80121400      -0.96638600
H       -7.01888500      -2.36589100       0.35335400
C       -5.03418600      -1.52779600       2.16443200
H       -6.03020000      -1.58301400       2.61814100
H       -4.28857000      -1.76609800       2.93150300
H       -4.87329300      -0.50721600       1.81497700
C       -5.36562200      -3.92569700       1.57097900
H       -4.73065000      -4.22032800       2.41425200
H       -6.39374600      -3.85658500       1.93789400
H       -5.32847500      -4.70809200       0.80399900
