89
Properties=species:S:1:pos:R:3 pbc="F F F"
Si       0.06252100       1.14705300      -0.70416400
O       -1.38023500       1.46575700       0.02756100
C       -1.81945000       2.13321300       1.24047700
C       -0.95441100       1.75577400       2.42687100
H       -2.81311700       1.70276600       1.40832900
C       -1.18185800       0.50879200       3.02473900
C        0.07489000       2.56544900       2.92165500
C       -0.37984900       0.05747100       4.07359200
H       -1.99559200      -0.10960100       2.65806900
C        0.87697100       2.12150900       3.97663100
H        0.26648800       3.53573100       2.47893100
C        0.65884700       0.86463300       4.54933500
H       -0.56835400      -0.91448500       4.52213000
H        1.67542300       2.75799500       4.34864800
H        1.28639200       0.52143500       5.36770100
C       -2.01324200       3.64865400       1.03521600
C       -2.97137500       3.95272900      -0.02429800
H       -2.37419300       4.05837700       1.98771000
H       -1.05475600       4.12566400       0.81512300
C       -3.77109900       4.19431500      -0.89881500
H       -4.47085000       4.41772400      -1.67374700
Cl       0.33568700       1.33957700      -2.79997200
Cl       1.11065900       3.03465500      -0.28515700
O        1.22505100       0.34977900       0.38395100
O       -0.56771400      -0.57243100      -1.20075900
C        1.01568400      -1.98691300       0.46675300
C       -0.43400100      -1.91229500       0.68632700
C       -2.57885000      -1.31130800      -0.25532000
C        3.11362900      -0.91622000      -0.10210100
C        3.77976200      -2.16343900      -0.13254200
C        1.66085300      -3.21322500       0.48544200
C        3.01555500      -3.29354100       0.19695100
C       -1.07067000      -2.62880200       1.68572600
C       -2.45739500      -2.64969000       1.73725600
C       -3.25486100      -2.00636800       0.77562800
H        1.08164800      -4.10533700       0.69079300
H        3.47309600      -4.27283600       0.21494300
H       -0.47389700      -3.15105300       2.42347400
H       -2.91965700      -3.20316000       2.54265800
C       -4.79431200      -2.05523200       0.89310300
C       -3.18528900      -0.75717800      -1.49716900
N        1.77199000      -0.88468000       0.19973700
N       -1.20716400      -1.25736500      -0.22384400
C        3.72671300       0.41828300      -0.32924300
C        5.26260300      -2.32909600      -0.53886300
C        6.20646800      -1.38539300       0.24474000
C        5.75141600      -3.77326400      -0.28591900
C        5.39641400      -2.05903300      -2.05723100
H        6.03424100      -1.46295700       1.32417200
H        7.23862000      -1.68875000       0.03822400
H        6.09611100      -0.34488800      -0.05745100
H        6.81124100      -3.82279400      -0.55240200
H        5.64869100      -4.05978500       0.76719400
H        5.22060500      -4.50146100      -0.90946300
H        5.16385100      -1.02223300      -2.30370900
H        6.43191400      -2.25927000      -2.35556300
H        4.73607800      -2.72102300      -2.62884700
C        3.80544200       0.94695100      -1.62073200
C        4.19797900       1.15644100       0.76486400
C        4.90293700       2.91547800      -0.73994300
C        4.79045800       2.39988100       0.55579000
C        4.40204000       2.19300100      -1.82430700
H        3.40059300       0.39192700      -2.46003000
H        4.46551800       2.59831300      -2.82983600
H        5.36814200       3.88398700      -0.90042100
H        5.16486500       2.96571100       1.40405100
H        4.11592800       0.74876100       1.76764100
C       -3.16145100      -1.58782400      -2.62877400
C       -3.75813500       0.51426500      -1.58053900
C       -4.32956100       0.10490300      -3.90079900
C       -4.33239600       0.93879800      -2.78025400
C       -3.73584200      -1.15915200      -3.82412700
H       -2.70759400      -2.57265300      -2.56563600
H       -3.72037800      -1.81203500      -4.69223100
H       -4.77862700       0.44038500      -4.83151400
H       -4.77217000       1.92997100      -2.83699000
H       -3.73623800       1.18542600      -0.73287500
C       -5.47964400      -2.51400800      -0.41790200
H       -5.42218200      -1.76242700      -1.20445000
H       -5.03891700      -3.44738900      -0.78573100
H       -6.53803300      -2.69506800      -0.20079900
C       -5.30811800      -0.64903000       1.28796400
H       -6.39366800      -0.70240700       1.42910400
H       -4.85290800      -0.32013300       2.22910800
H       -5.10038700       0.08934100       0.51268100
C       -5.24266500      -3.03275800       2.00241300
H       -4.89881900      -2.71662200       2.99349500
H       -6.33645400      -3.04404700       2.02088600
H       -4.89155900      -4.05296500       1.80926500
