57
Properties=species:S:1:pos:R:3 pbc="F F F"
Si      -0.42760600       1.14467800       1.19807000
O        0.36689800       2.12826400       0.14408400
C        0.43579800       2.15599800      -1.30757000
C        1.48566300       1.18842600      -1.80665300
H       -0.53596900       1.89147900      -1.73060000
C        2.82588700       1.32131200      -1.41405800
C        1.12955300       0.15630300      -2.68194700
C        3.79381800       0.44235900      -1.90119200
H        3.10835000       2.10846800      -0.72084000
C        2.09717100      -0.72900400      -3.16729100
H        0.08947500       0.04605800      -2.97813100
C        3.43194100      -0.58459400      -2.78001800
H        4.82838500       0.55275100      -1.59014100
H        1.80837100      -1.52870800      -3.84422800
H        4.18609100      -1.27233600      -3.15302800
C        0.76347500       3.61249900      -1.70348000
C       -0.29602000       4.55017200      -1.33756600
H        0.92488800       3.63489700      -2.78872500
H        1.70883600       3.90271100      -1.22889100
C       -1.19080200       5.30448200      -1.03208200
H       -1.97199700       5.97924400      -0.75777700
Cl       0.44438700       2.18960600       2.93637500
Cl      -2.41070300       1.43720100       1.88608500
O       -1.06460600       0.13298200      -0.28955300
O        0.28076200      -0.36710800       1.82130200
C       -1.21324200      -2.11856500       0.25557300
C        0.25482500      -2.15761600       0.30734900
C        2.33446500      -1.17942000       1.02643300
C       -3.17292100      -0.89368300      -0.40337600
C       -3.96427700      -2.07280200      -0.21046600
C       -1.97524000      -3.28451900       0.43755000
C       -3.33806800      -3.25753600       0.23460700
C        0.94736800      -3.15863500      -0.39353600
C        2.32566500      -3.17159200      -0.40158500
C        3.04943900      -2.18655800       0.29988800
H       -1.46534400      -4.18768400       0.74928100
H       -3.93525500      -4.14966200       0.39479900
H        0.36973800      -3.88809900      -0.94726800
H        2.86394100      -3.93347200      -0.95594400
C        4.46618200      -2.15934500       0.32670000
C        3.01838800      -0.19250800       1.76009400
N       -1.81951600      -0.96238400      -0.10517200
N        0.94974500      -1.22552500       0.99332000
C       -3.74607100       0.29012900      -0.90834500
C       -5.35142800      -2.00620600      -0.50124600
C       -5.90588700      -0.84068200      -0.98399300
C       -5.09645700       0.30283000      -1.19632300
H       -3.13033700       1.16558700      -1.05917600
H       -5.95612400      -2.89415300      -0.34579000
H       -6.96629700      -0.79580100      -1.21141000
H       -5.54445500       1.20981900      -1.59015100
C        5.12917200      -1.18822800       1.04402700
C        4.40028700      -0.20728300       1.75840400
H        2.46713000       0.55889600       2.30962800
H        5.00736400      -2.91792300      -0.23014700
H        6.21416700      -1.16976600       1.06312500
H        4.93477200       0.55434000       2.31752200
