57
Properties=species:S:1:pos:R:3 pbc="F F F"
Si       0.12609900      -0.83785800      -0.30410700
O        1.48983800      -0.00033700       0.06167300
C        2.69805600      -0.17126000       0.83146600
C        3.52283500      -1.35220500       0.34200800
H        3.25693800       0.74469200       0.60170000
C        4.13256500      -2.26786000       1.20757900
C        3.71086600      -1.49988600      -1.04102500
C        4.90678000      -3.31688900       0.70053100
H        4.00061800      -2.18411000       2.28125700
C        4.47734500      -2.54874300      -1.54933600
H        3.23909800      -0.79625400      -1.72106900
C        5.07987500      -3.46301000      -0.67772500
H        5.36738600      -4.02317900       1.38633200
H        4.60532700      -2.65254900      -2.62370500
H        5.67705500      -4.28174200      -1.07039400
C        2.40953800      -0.15780800       2.34711500
C        1.61703100       0.99693900       2.76156600
H        3.37565600      -0.13764900       2.86695400
H        1.90280200      -1.08470800       2.63554200
C        0.96018800       1.95127300       3.10873600
H        0.38251100       2.78916100       3.43043500
Cl      -0.16962600      -1.87126200      -2.12014700
Cl       0.50231000      -2.66447600       0.87848100
O       -1.27590600      -0.54871600       0.75907700
O       -0.42720900       0.68570200      -1.30575900
C       -2.67200500       1.21579900       0.08243900
C       -1.53913100       2.15045000       0.11346100
C        0.61913000       2.72995100      -0.76429000
C       -3.49322100      -1.04606400       0.19705300
C       -4.80777500      -0.57762200      -0.13162300
C       -3.96333000       1.68782700      -0.20721700
C       -5.01711600       0.80534900      -0.31507000
C       -1.62145900       3.37633300       0.79434400
C       -0.57596700       4.27091700       0.72496300
C        0.56171400       3.97420900      -0.05672600
H       -4.09195500       2.74898900      -0.37975200
H       -6.01175600       1.16656900      -0.55623600
H       -2.50799900       3.58024900       1.38232900
H       -0.62030900       5.21062000       1.26635100
C        1.65652100       4.86828200      -0.17923900
C        1.71431700       2.41519600      -1.59239100
N       -2.48087900      -0.10447200       0.29601500
N       -0.44307800       1.85315900      -0.62072200
C       -3.24409200      -2.41378000       0.41867600
C       -5.85232000      -1.52992500      -0.24978600
C       -5.59820300      -2.86898700      -0.04631200
C       -4.29307000      -3.30487500       0.28976900
H       -2.24982800      -2.75144900       0.68129600
H       -6.84739900      -1.17644500      -0.50168500
H       -6.39874800      -3.59597400      -0.13914800
H       -4.10775000      -4.36233000       0.45061900
C        2.73335800       4.54352700      -0.97502800
C        2.75396300       3.31839000      -1.68764000
H        1.72814200       1.47575100      -2.12566000
H        1.62117900       5.80863000       0.36218500
H        3.56948900       5.22978800      -1.06605100
H        3.60409100       3.08233800      -2.32023200
