57
Properties=species:S:1:pos:R:3 pbc="F F F"
Si      -0.21317500      -0.54922400       1.33447900
O       -0.54769600      -1.88696300       0.43029000
C       -0.12856800      -2.29417600      -0.89129500
C        1.36249400      -2.54609800      -0.96966400
H       -0.40354300      -1.51975900      -1.61369500
C        2.06588600      -3.09219400       0.11055400
C        2.04771400      -2.24452900      -2.15305300
C        3.44281900      -3.31260200       0.01451900
H        1.54070300      -3.32558700       1.03170100
C        3.42172800      -2.47569000      -2.25535000
H        1.50469300      -1.80952900      -2.98906800
C        4.12406500      -3.00541000      -1.16778300
H        3.98291300      -3.72198100       0.86398900
H        3.94527200      -2.22765000      -3.17477400
H        5.19532300      -3.17311600      -1.23944400
C       -0.92299800      -3.58053600      -1.22160200
C       -2.36253900      -3.35023600      -1.32573000
H       -0.53977600      -3.97465000      -2.17118600
H       -0.70687800      -4.32772500      -0.44751000
C       -3.54769700      -3.12783700      -1.42124200
H       -4.59637200      -2.94275100      -1.49837000
Cl       1.55498700      -0.20707700       2.44989900
Cl      -1.27621400      -1.39616300       3.07690100
O        0.54797300       0.24769500      -0.21390800
O       -1.31836100       0.84625700       1.41588900
C        0.18699400       2.54353800      -0.20852000
C       -1.23710100       2.27010400      -0.44686800
C       -3.21311700       0.97934400       0.03833200
C        2.42248300       1.65865600      -0.17360300
C        2.94019300       2.99469000      -0.13165300
C        0.68137400       3.85815200      -0.18077700
C        2.03999700       4.08261200      -0.11697400
C       -1.90707800       2.93456600      -1.48857300
C       -3.21539000       2.61723200      -1.78656900
C       -3.89291500       1.62617200      -1.04630200
H       -0.03025100       4.67456600      -0.20024100
H        2.42906200       5.09503400      -0.07483900
H       -1.35563700       3.66470500      -2.06774300
H       -3.72819700       3.11678200      -2.60250900
C       -5.23112800       1.24772000      -1.32364300
C       -3.85932500       0.00631500       0.82238300
N        1.04539700       1.49636900      -0.16189400
N       -1.90088200       1.35174000       0.28728500
C        3.28320500       0.54620800      -0.25181500
C        4.34802900       3.16934500      -0.13056200
C        5.18391300       2.07525600      -0.19543800
C        4.64591000       0.76614600      -0.26701600
H        2.87550100      -0.45303100      -0.30448000
H        4.74365900       4.17932000      -0.08883200
H        6.26063500       2.21309500      -0.20046100
H        5.31369000      -0.08695300      -0.33466200
C       -5.85348500       0.28443500      -0.55948700
C       -5.16332700      -0.33150600       0.51259000
H       -3.33702500      -0.46892800       1.64231100
H       -5.74591900       1.73491100      -2.14575200
H       -6.87762100      -0.00383200      -0.77410500
H       -5.66468400      -1.08943000       1.10630600
