57
Properties=species:S:1:pos:R:3 pbc="F F F"
Si      -0.27972000      -0.96106100       0.78065400
O        1.06254500      -1.97395800       0.62321000
C        1.59334500      -2.54495600      -0.59312700
C        2.79906100      -1.75049000      -1.06021500
H        0.83290900      -2.52837100      -1.38167200
C        4.00823100      -1.77926600      -0.34910900
C        2.70125500      -0.93949800      -2.19683100
C        5.09504400      -1.00810700      -0.76622900
H        4.09786300      -2.39176000       0.54373900
C        3.78560800      -0.16293700      -2.61559700
H        1.76465000      -0.91033600      -2.74829800
C        4.98547900      -0.19476600      -1.89926400
H        6.02539000      -1.03792500      -0.20505900
H        3.69334100       0.46586200      -3.49743300
H        5.82993800       0.40887800      -2.22111100
C        1.96737800      -4.01885300      -0.30744400
C        0.82845000      -4.87843800       0.00438700
H        2.49121300      -4.40806100      -1.19025700
H        2.68143000      -4.04156300       0.52471000
C       -0.10456600      -5.60605900       0.25506100
H       -0.93602800      -6.23761500       0.47913800
Cl      -0.12131900      -0.95891100       2.88596100
Cl      -1.66832800      -2.14296400      -0.30859100
O        0.42762100       0.27755900      -0.29620200
O       -1.65991900       0.36059900       1.15995800
C       -0.57147600       2.39600000      -0.29457200
C       -1.87342600       1.81847200      -0.65141000
C       -3.70987000       0.42122700       0.01360200
C        1.70191700       2.09286000       0.43908400
C        1.85247200       3.51385500       0.54930400
C       -0.42958200       3.79231500      -0.20195100
C        0.76536700       4.34552500       0.20634600
C       -2.63342200       2.35185300      -1.70694100
C       -3.91683400       1.90369100      -1.93000500
C       -4.49244100       0.94723800      -1.06504300
H       -1.29166500       4.40878800      -0.42370900
H        0.87061900       5.42297000       0.28526700
H       -2.17806700       3.10838800      -2.33418300
H       -4.50035800       2.29544600      -2.75697000
C       -5.83065300       0.49754800      -1.20780400
C       -4.26410900      -0.49077500       0.93336600
N        0.48434400       1.60432100      -0.01168300
N       -2.39694700       0.85230700       0.14136600
C        2.75470200       1.22161600       0.76596300
C        3.09887500       4.02320200       0.99525300
C        4.12747700       3.16249400       1.31451800
C        3.94885000       1.76236600       1.20171600
H        2.62683000       0.15317200       0.66941200
H        3.21959100       5.09880100       1.07804300
H        5.08000200       3.55616600       1.65501000
H        4.76441500       1.09354600       1.45663700
C       -6.36130600      -0.40250000      -0.30920600
C       -5.57627200      -0.88665400       0.76658000
H       -3.66037900      -0.86500100       1.74847600
H       -6.42333400       0.88765700      -2.02961100
H       -7.38752900      -0.73927900      -0.41729000
H       -6.01181400      -1.58481500       1.47462600
