63
Properties=species:S:1:pos:R:3 pbc="F F F"
Si      -0.18468100       1.19535800       0.87914400
O        0.75876200       1.75648000      -0.34080900
C        2.01109300       2.45669800      -0.39445700
C        3.14070200       1.49480300      -0.69341400
H        2.20106200       2.96619000       0.55328800
C        2.95972600       0.42456700      -1.58103600
C        4.40041400       1.71038000      -0.12540000
C        4.02902000      -0.41280300      -1.90023100
H        1.97689000       0.24608500      -2.00746000
C        5.47246000       0.87110000      -0.44394200
H        4.53888700       2.53321000       0.57220200
C        5.28867500      -0.18993600      -1.33504100
H        3.87859000      -1.24548600      -2.58183100
H        6.44600900       1.04176100       0.00788300
H        6.11877300      -0.84775400      -1.57784100
C        1.88915700       3.51812400      -1.51622900
C        0.86682900       4.52334700      -1.23417400
H        2.86879200       3.99883600      -1.63007200
H        1.66860600       3.00101900      -2.45898600
C        0.01523200       5.34042000      -0.96880000
H       -0.73317400       6.06680500      -0.73861800
Cl       1.04260300       1.87128500       2.61513400
Cl      -1.90482000       2.17888700       1.61988700
O       -1.17530200       0.48457700      -0.60447500
O       -0.02956300      -0.46132900       1.51538600
C       -2.05444000      -1.55802900       0.06682800
C       -0.67238200      -2.07141000      -0.05759100
C        1.62807400      -1.87737600       0.65047500
C       -3.51186400       0.25471100      -0.54648500
C       -4.63710800      -0.55888200      -0.20114600
C       -3.13937600      -2.36611700       0.46742000
C       -4.41630300      -1.83905500       0.33876700
C       -0.35979900      -3.13410200      -0.93621800
C        0.95639500      -3.57005900      -0.98014300
C        1.96194600      -2.98611800      -0.19014700
H       -5.27174000      -2.43235800       0.64970400
H        1.22313300      -4.38062000      -1.65262000
N       -2.25606200      -0.27781600      -0.33561400
N        0.30713100      -1.47630800       0.65812000
C       -3.68044200       1.54308200      -1.09448400
H       -2.81137300       2.13471900      -1.34775000
C       -5.93823100      -0.02524800      -0.40511600
H       -6.79564400      -0.63419900      -0.13573600
C       -4.96258200       2.01230000      -1.29257400
C       -6.09549700       1.23315700      -0.94123800
C        2.60523700      -1.23878500       1.43799100
H        2.33793300      -0.39596100       2.06096300
C        3.30619700      -3.44087900      -0.20154700
H        3.56190100      -4.28073900      -0.83975900
C        3.89970700      -1.71587700       1.39335000
C        4.25391000      -2.81938500       0.57881300
H       -5.10561100       2.99845600      -1.72332700
H       -7.09088200       1.63575900      -1.10122400
H        4.66106900      -1.22808000       1.99260800
H        5.28241300      -3.16538800       0.56606300
C       -2.94162600      -3.73863100       1.05969500
H       -3.44243700      -4.49575100       0.44707200
H       -1.88776100      -4.00552700       1.15876100
H       -3.39606400      -3.76601800       2.05620700
C       -1.40424500      -3.75856300      -1.82539400
H       -0.91992700      -4.20393200      -2.69828000
H       -1.94247700      -4.55360900      -1.29817500
H       -2.13768600      -3.02289800      -2.16599300
