63
Properties=species:S:1:pos:R:3 pbc="F F F"
Si      -0.21797300      -1.58864700      -0.52461500
O        1.41381500      -1.52419200      -0.41957500
C        2.51983000      -1.55490300       0.50723100
C        2.38702800      -0.48963000       1.57557800
H        3.38231300      -1.30844900      -0.12027600
C        1.34255100      -0.51930600       2.51151400
C        3.33073000       0.54120000       1.64111500
C        1.23195900       0.48169700       3.47757500
H        0.61243800      -1.32152900       2.48215300
C        3.22808600       1.54057100       2.61309400
H        4.14183800       0.56596000       0.91811400
C        2.17422600       1.51539700       3.53056000
H        0.41443800       0.45237900       4.19300800
H        3.96546500       2.33800000       2.64875100
H        2.08916700       2.29261300       4.28546500
C        2.77561800      -2.95376400       1.11489400
C        2.96048800      -3.99014400       0.10330400
H        3.68497300      -2.86243600       1.72359300
H        1.95863300      -3.22251900       1.79081000
C        3.11572700      -4.83099700      -0.75220100
H        3.24636500      -5.58167500      -1.50063700
Cl      -1.13273200      -2.54748600      -2.16444000
Cl      -0.57721700      -3.28959600       0.86257300
O       -1.17982300      -0.60897500       0.61693800
O       -0.18271400      -0.07166500      -1.69368600
C       -1.68630000       1.52000500      -0.21092200
C       -0.23134100       1.77538900      -0.28355200
C        1.76257500       1.24634300      -1.51812500
C       -3.42963500      -0.07750700       0.27158500
C       -4.40507800       0.89396000      -0.11607900
C       -2.62740100       2.49178600      -0.62562200
C       -3.97091500       2.15535500      -0.56587200
C        0.40735100       2.82588100       0.40553700
C        1.72513700       3.10192300       0.07451500
C        2.41292300       2.36179500      -0.90357200
H       -4.71202300       2.87826600      -0.89434600
H        2.24689900       3.90399600       0.58807600
N       -2.10416700       0.30113200       0.19031400
N        0.45696300       0.99656400      -1.15392200
C       -3.80766100      -1.36027800       0.71400800
H       -3.05364500      -2.08072500       1.00439500
C       -5.77622500       0.53236900      -0.04842600
H       -6.52069400       1.26483500      -0.34486900
C       -5.15405500      -1.66616600       0.76490700
C       -6.14168900      -0.72346900       0.38439100
C        2.43103500       0.43438800      -2.45695700
H        1.91616900      -0.40914600      -2.89502700
C        3.75866900       2.63504200      -1.26423900
H        4.26109300       3.47361500      -0.79231200
C        3.73725000       0.73931100      -2.77961900
C        4.40611300       1.83959800      -2.18265400
H       -5.45830700      -2.65144200       1.10430900
H       -7.19069900      -0.99749400       0.43557900
H        4.26319000       0.12234700      -3.50158600
H        5.43652400       2.04848000      -2.45293100
C       -2.18708000       3.82853200      -1.16341500
H       -1.91642100       4.51055000      -0.35057200
H       -1.31741200       3.72534300      -1.81897300
H       -3.00410400       4.28274400      -1.72934400
C       -0.27533700       3.58424900       1.51360100
H        0.24919900       3.37160000       2.45254800
H       -0.22102200       4.66289600       1.33400000
H       -1.32090100       3.29625400       1.63933800
