63
Properties=species:S:1:pos:R:3 pbc="F F F"
Si      -0.31665400       1.39995600       1.16487900
O        0.66669000       2.23043200       0.13823900
C        0.75823000       2.26682400      -1.31144100
C        1.69911700       1.19612700      -1.81596000
H       -0.23044500       2.11856300      -1.75056100
C        3.04038200       1.16746400      -1.40475100
C        1.24293700       0.23918500      -2.72899300
C        3.91332000       0.20651600      -1.91579900
H        3.39702300       1.89690300      -0.68317400
C        2.11470000      -0.72896900      -3.23701200
H        0.20058900       0.25382100      -3.03698700
C        3.45294000      -0.74229200      -2.83558900
H        4.94981100       0.19247800      -1.59246200
H        1.74872100      -1.47065300      -3.94212700
H        4.13302900      -1.49304900      -3.22915400
C        1.25165600       3.68212000      -1.68641800
C        0.29158200       4.72537000      -1.33248800
H        1.43735600       3.69513000      -2.76794900
H        2.21286200       3.86419300      -1.19017000
C       -0.52538100       5.56682900      -1.03663100
H       -1.23735100       6.31721300      -0.77052400
Cl       0.55407000       2.41613600       2.92656500
Cl      -2.29001600       1.95211100       1.70552100
O       -0.98881700       0.42331700      -0.34568600
O        0.18073800      -0.15987700       1.87788200
C       -1.35183800      -1.76706400       0.31166000
C        0.12154400      -1.89280100       0.30574300
C        2.22128900      -1.09093400       1.18028200
C       -3.18115300      -0.41143400      -0.46587500
C       -4.07605500      -1.48939800      -0.17381500
C       -2.21191000      -2.83171100       0.65005700
C       -3.56929700      -2.66039800       0.41910700
C        0.77277300      -2.82685700      -0.52958600
C        2.15579500      -2.89365800      -0.46763900
C        2.90307400      -2.06659300       0.38796900
H       -4.26023100      -3.45541400       0.68499300
H        2.68068300      -3.59400900      -1.11015600
N       -1.85081900      -0.59017200      -0.14298100
N        0.84483900      -1.05758000       1.08264600
C       -3.63876800       0.77454000      -1.07553700
H       -2.94140900       1.57205900      -1.29120200
C       -5.45159600      -1.32302800      -0.48992800
H       -6.13721700      -2.13314700      -0.26100500
C       -4.97930700       0.88323700      -1.38341300
C       -5.89164900      -0.16121700      -1.08348300
C        2.92933800      -0.21059600       2.02106900
H        2.39795700       0.52310900       2.61256400
C        4.31746400      -2.13277000       0.47141700
H        4.83721000      -2.86529900      -0.13787300
C        4.30585600      -0.31346800       2.07122100
C        5.00483100      -1.27511700       1.30036200
H       -5.34126700       1.78784600      -1.86216100
H       -6.94190100      -0.03988400      -1.32972500
H        4.86069000       0.35912700       2.71796300
H        6.08718000      -1.32750000       1.36231100
C       -1.69824900      -4.10518900       1.27233900
H       -1.86731500      -4.95412500       0.60127900
H       -0.63423400      -4.05377300       1.51209100
H       -2.25049800      -4.30098200       2.19760400
C        0.00600800      -3.68876800      -1.49813700
H        0.65233600      -3.95207700      -2.33967300
H       -0.32267400      -4.61810800      -1.02035900
H       -0.87949700      -3.17442700      -1.88081900
