63
Properties=species:S:1:pos:R:3 pbc="F F F"
Si      -0.31364100      -0.78778700      -0.48264200
O       -1.92741700      -0.88190200      -0.03486000
C       -2.88783300      -1.93020300       0.09377100
C       -4.08111800      -1.35315200       0.83168900
H       -2.46005900      -2.75301600       0.67862800
C       -4.69211900      -0.17697500       0.37264600
C       -4.60128400      -1.99948000       1.95759100
C       -5.80196800       0.34885000       1.03589100
H       -4.28990600       0.32620200      -0.50219600
C       -5.71736000      -1.47765800       2.62190200
H       -4.12799200      -2.91087900       2.31663400
C       -6.31837500      -0.30173500       2.16345700
H       -6.26634100       1.26289200       0.67413500
H       -6.11161800      -1.98586100       3.49815500
H       -7.18243300       0.10682900       2.68095400
C       -3.34475500      -2.48188200      -1.28764800
C       -2.36145600      -3.32741800      -1.95797500
H       -4.26202100      -3.06208700      -1.12381300
H       -3.61021700      -1.62800700      -1.92296900
C       -1.55558100      -4.05068900      -2.49687100
H       -0.83073600      -4.67465100      -2.97170500
Cl      -0.68084100      -0.31164500      -2.52317900
Cl       0.33468400      -2.60975700       0.39478800
O       -0.11059300       0.56019200       0.66481300
O        1.53071400      -0.43157600      -1.06951800
C        1.69924000       1.93224800       0.14777200
C        2.57131500       0.82078800       0.59014100
C        3.41663200      -1.35123300      -0.00359500
C       -0.56762500       2.70046600      -0.16517400
C       -0.06368700       3.95008100      -0.64296400
C        2.22762700       3.14784200      -0.34725100
C        1.32988900       4.13118000      -0.73622000
C        3.50063200       0.95441200       1.64271800
C        4.38989900      -0.08919500       1.85298900
C        4.40042000      -1.22867900       1.02848600
H        1.71089400       5.06536800      -1.13923900
H        5.10751300      -0.02173400       2.66581200
N        0.36429800       1.74739300       0.19222800
N        2.49881900      -0.32698300      -0.13235200
C       -1.95065700       2.45315200      -0.06273200
H       -2.30621500       1.49705500       0.29832700
C       -1.00057000       4.94784600      -1.02115200
H       -0.62679400       5.89879400      -1.38788800
C       -2.82345600       3.45550600      -0.43801300
C       -2.35290700       4.70365600      -0.91867100
C        3.40072500      -2.46536100      -0.86799300
H        2.65208900      -2.52868800      -1.64557900
C        5.34894000      -2.27591900       1.18034400
H        6.09131100      -2.19284000       1.96834100
C        4.35426200      -3.44790400      -0.69693300
C        5.32590600      -3.36110600       0.33343500
H       -3.89218400       3.27966800      -0.36116600
H       -3.06670300       5.46916900      -1.20631000
H        4.35825500      -4.30441800      -1.36406800
H        6.05685400      -4.15565300       0.44699400
C        3.71306700       3.35597500      -0.48847900
H        4.14801500       3.71341100       0.45115900
H        4.22362700       2.42957200      -0.76597700
H        3.90616600       4.10921400      -1.25638400
C        3.51986400       2.15988700       2.54907100
H        3.39586400       1.83043200       3.58647300
H        4.48419800       2.67401000       2.47777700
H        2.72462900       2.87170600       2.31955300
