63
Properties=species:S:1:pos:R:3 pbc="F F F"
Si       0.72614300       0.25499400       0.78392500
O        1.60990100      -0.28447500      -0.49401600
C        2.98389000      -0.70558300      -0.59010500
C        3.93463400       0.46378200      -0.45682600
H        3.19554000      -1.44512800       0.18739700
C        3.65464800       1.68799800      -1.07829500
C        5.12955200       0.31196900       0.25536500
C        4.55843600       2.74855100      -0.98397700
H        2.72297000       1.81047400      -1.62352300
C        6.03863600       1.36995600       0.34549200
H        5.34094800      -0.63398800       0.74869300
C        5.75413000       2.59119300      -0.27394200
H        4.33070300       3.69746800      -1.46287100
H        6.96116800       1.24429200       0.90622000
H        6.45643200       3.41724700      -0.19906100
C        3.13488800      -1.37579200      -1.97716500
C        2.28532300      -2.55357400      -2.14187200
H        4.18949200      -1.65242800      -2.09943400
H        2.90352200      -0.62938600      -2.74778500
C        1.57092500      -3.52350400      -2.25045700
H        0.94382100      -4.38230300      -2.34290200
Cl       0.71424800       2.22653200       1.55081900
Cl       2.02528600      -0.46394300       2.44336800
O       -0.47185700       0.76787000      -0.63035700
O       -0.56793500      -0.76906600       1.45423000
C       -2.63315000       0.41206600       0.14664800
C       -2.34365500      -1.02634400      -0.04388800
C       -0.90434300      -2.88618300       0.49654800
C       -1.90347500       2.62206800      -0.45927800
C       -3.16813000       3.13540000      -0.02887500
C       -3.86694600       0.89271000       0.63176200
C       -4.10394300       2.25693500       0.54731600
C       -3.11321300      -1.81781200      -0.92939400
C       -2.76235400      -3.15132900      -1.07193300
C       -1.68287100      -3.71751000      -0.36830800
H       -5.04065400       2.65994800       0.92210100
H       -3.32564200      -3.77675500      -1.75853400
N       -1.67654900       1.27116600      -0.28902000
N       -1.28407000      -1.56204000       0.59637300
C       -0.93605300       3.46144300      -1.04943000
H        0.00876900       3.04629900      -1.37210400
C       -3.41790300       4.52499300      -0.18984900
H       -4.37113500       4.92201300       0.14531900
C       -1.23057200       4.80028600      -1.20441600
C       -2.46865200       5.33830700      -0.76709300
C        0.19254400      -3.40137500       1.21305400
H        0.76885300      -2.75673400       1.86342400
C       -1.31998500      -5.08437800      -0.49186800
H       -1.90667900      -5.71813800      -1.14952200
C        0.50515200      -4.73853400       1.06561500
C       -0.24771800      -5.58421800       0.21408400
H       -0.49836700       5.45397100      -1.66821400
H       -2.66506100       6.39836200      -0.89416000
H        1.34817800      -5.14648600       1.61444200
H        0.02630400      -6.63022400       0.11965400
C       -4.88264600      -0.01922600       1.27185200
H       -5.85659300       0.08995500       0.78409900
H       -4.58462400      -1.06873900       1.23850500
H       -5.00442300       0.26492900       2.32348300
C       -4.24287300      -1.22364600      -1.72986100
H       -4.49165700      -1.88773100      -2.56114600
H       -5.14045900      -1.09899000      -1.11535800
H       -3.97167200      -0.24225300      -2.13062100
