57
Properties=species:S:1:pos:R:3 pbc="F F F"
Si      -0.45183800       0.96151000       0.92255500
O        0.36849700       1.72224800      -0.27730200
C        1.61206100       2.43272600      -0.31179700
C        2.70010600       1.56953900      -0.92232000
H        1.90701300       2.72894600       0.69899000
C        2.40461300       0.53682000      -1.82127500
C        4.03729400       1.84237400      -0.60967900
C        3.43398400      -0.21099200      -2.40122900
H        1.36831200       0.32112100      -2.06104800
C        5.06657200       1.09862100      -1.19146000
H        4.27137400       2.63185000       0.10098900
C        4.76677400       0.06963700      -2.09106100
H        3.19278900      -1.01391000      -3.09287400
H        6.10043200       1.31487700      -0.93549600
H        5.56678100      -0.51567800      -2.53602800
C        1.39349700       3.71164500      -1.15829600
C        0.42673000       4.62693200      -0.55623000
H        2.36435600       4.20969000      -1.27174700
H        1.06268100       3.40913900      -2.16029200
C       -0.37571900       5.36335000      -0.03034000
H       -1.08394400       6.01557300       0.43192100
Cl       0.42918500       1.90034900       2.70374900
Cl      -2.40244400       1.55597300       1.53426600
O       -1.21357400       0.00101300      -0.55991000
O        0.13472000      -0.61035700       1.54367800
C       -1.83927300      -2.08446000       0.21398100
C       -0.41273900      -2.44372600       0.19392400
C        1.89383900      -1.89301500       0.60146900
C       -3.50869200      -0.56507100      -0.60182400
C       -4.53137100      -1.50052300      -0.21465100
C       -2.82019900      -3.02128400       0.57433500
C       -4.14985200      -2.71591700       0.39750800
C       -0.04127000      -3.62774400      -0.46163300
C        1.28901000      -3.94321100      -0.61083900
C        2.28736600      -3.08724100      -0.10504200
H       -2.50256200      -3.96552000       0.99923000
H       -4.92069100      -3.41554100       0.70332400
H       -0.82246200      -4.25154800      -0.87717700
H        1.58469500      -4.84682900      -1.13362300
C        3.65835300      -3.39849700      -0.27096300
C        2.92845000      -1.08061100       1.13450700
N       -2.19276000      -0.88046200      -0.29699000
N        0.53278600      -1.63530800       0.72485300
C       -3.90393200       0.61873600      -1.28293800
C       -5.89149800      -1.19922300      -0.46664700
C       -6.23608400      -0.02662600      -1.10228700
C       -5.23694000       0.87734000      -1.51965000
F       -3.00360100       1.50317300      -1.73463900
H       -6.64518100      -1.91598900      -0.15793400
H       -7.27702200       0.20749700      -1.29955800
H       -5.49390800       1.79342500      -2.04142600
C        4.25458700      -1.41253300       0.95620700
C        4.62661100      -2.57204100       0.25050900
H        3.91743000      -4.30074700      -0.81483700
F        2.66025000       0.03451000       1.82254100
H        5.00119600      -0.74547600       1.37174600
H        5.67899700      -2.80151800       0.12225300
