57
Properties=species:S:1:pos:R:3 pbc="F F F"
Si      -0.40961000      -1.43568300      -0.12495200
O        1.21252600      -1.26112500       0.12571800
C        2.09670800      -1.49720000       1.24701400
C        2.40241300      -0.15144000       1.88203300
H        1.58476000      -2.12653400       1.97905500
C        3.62087800       0.51804200       1.72039800
C        1.38634300       0.46130200       2.63469400
C        3.81842700       1.77917100       2.29177500
H        4.42320000       0.06868300       1.14461000
C        1.57882600       1.72096200       3.20074600
H        0.44071500      -0.05722200       2.77232700
C        2.79823900       2.38644500       3.02695300
H        4.76866900       2.28803200       2.15425900
H        0.78278000       2.18209100       3.77935500
H        2.95272800       3.36783900       3.46741700
C        3.32785100      -2.25585900       0.72095700
C        2.98705900      -3.57734800       0.20003100
H        4.04483900      -2.35178300       1.54608000
H        3.81336300      -1.66344400      -0.06390600
C        2.68338100      -4.66660300      -0.22770300
H        2.41368900      -5.62855700      -0.60525000
Cl      -1.20863400      -2.67588500      -1.62390600
Cl      -0.82037800      -2.80757200       1.54354400
O       -1.51842500      -0.28463100       0.69258000
O       -0.24033500      -0.14075100      -1.51265400
C       -1.65886300       1.81675100      -0.34320500
C       -0.19664300       1.91629800      -0.45387900
C        1.80209100       1.05684100      -1.46503200
C       -3.64563300       0.52483400       0.07489100
C       -4.44986200       1.66287200      -0.29101700
C       -2.43418500       2.92968300      -0.71070500
C       -3.80625000       2.86056000      -0.66760000
C        0.48662100       3.05224000       0.00767300
C        1.83266800       3.18276300      -0.23604600
C        2.52136700       2.20783900      -0.99124900
H       -1.92275500       3.82347600      -1.04513600
H       -4.41021700       3.71917000      -0.94241700
H       -0.06459200       3.79503400       0.57043600
H        2.38068900       4.03967900       0.13947100
C        3.89975700       2.34612400      -1.27882800
C        2.50877300       0.09950000      -2.24451300
N       -2.26312500       0.67918200       0.07203200
N        0.46106700       0.95058400      -1.13745300
C       -4.32332500      -0.67374800       0.42346300
C       -5.86215300       1.57346100      -0.26825200
C       -6.47865800       0.39785500       0.09819900
C       -5.70258400      -0.72753800       0.43692200
F       -3.65737600      -1.79546700       0.71929200
H       -6.43677600       2.44966000      -0.54885200
H       -7.56073900       0.32344800       0.11899900
H       -6.16936800      -1.66984700       0.70469900
C        3.85236300       0.26365400      -2.50427100
C        4.55405400       1.38656100      -2.01786100
H        4.42070300       3.21833500      -0.89887900
F        1.90052700      -0.97465300      -2.76389200
H        4.35210200      -0.49454000      -3.09824600
H        5.61190300       1.48543500      -2.23784300
