57
Properties=species:S:1:pos:R:3 pbc="F F F"
Si      -0.46100900       0.97010600       1.26446000
O        0.13940800       2.16928200       0.31275000
C        0.23478900       2.31225900      -1.13114200
C        1.42787000       1.54030000      -1.65031100
H       -0.67702200       1.93667500      -1.59825200
C        2.72959100       1.87941400      -1.25519000
C        1.23915600       0.46412600      -2.52623700
C        3.82377000       1.15626800      -1.73271200
H        2.88492900       2.70023500      -0.56102200
C        2.33284400      -0.26589800      -3.00041200
H        0.23027500       0.19615100      -2.82769400
C        3.62813900       0.08004800      -2.60489600
H        4.82779000       1.42533500      -1.41755000
H        2.17382600      -1.10330700      -3.67471900
H        4.48012100      -0.48732900      -2.96887700
C        0.34500100       3.82471800      -1.41910300
C       -0.85947600       4.55944000      -1.03815100
H        0.53281300       3.94613900      -2.49354800
H        1.21742900       4.22604500      -0.88936200
C       -1.87149300       5.14136900      -0.72196800
H       -2.75948800       5.66241000      -0.43790100
Cl       0.24332500       1.89160800       3.11531500
Cl      -2.46994000       0.92279900       1.98745700
O       -1.00600600       0.02427000      -0.30777700
O        0.52245800      -0.47378600       1.68119100
C       -1.08620400      -2.22814400       0.18197600
C        0.38409000      -2.23643600       0.14002500
C        2.51540500      -1.25715100       0.67195000
C       -3.09350700      -1.06667800      -0.44270100
C       -3.85163600      -2.26254400      -0.18731300
C       -1.80723400      -3.40989800       0.41681500
C       -3.17480500      -3.41612800       0.26926600
C        1.01097900      -3.25118300      -0.60272600
C        2.38100700      -3.29343700      -0.69539000
C        3.16834200      -2.30712100      -0.06819400
H       -1.26358200      -4.29394600       0.72588400
H       -3.74754800      -4.31339000       0.47953900
H        0.38663800      -3.97825700      -1.10651500
H        2.87045600      -4.07924900      -1.26149100
C        4.58012600      -2.35239100      -0.14898000
C        3.34313700      -0.27421900       1.27424300
N       -1.73243700      -1.09283700      -0.17493800
N        1.12605500      -1.29351700       0.76445000
C       -3.77873700       0.06361700      -0.96487100
C       -5.24972200      -2.26915900      -0.40907700
C       -5.88151400      -1.14369800      -0.89054900
C       -5.13956600       0.02114200      -1.17765800
F       -3.12942800       1.19284900      -1.28759700
H       -5.80130200      -3.17976500      -0.20073600
H       -6.95233100      -1.14491700      -1.06503600
H       -5.62148400       0.90742800      -1.57722000
C        4.71792400      -0.35728600       1.19246100
C        5.34436000      -1.40000100       0.48571900
H        5.03596300      -3.15583300      -0.71729200
F        2.82772700       0.78017500       1.91334700
H        5.29903000       0.42398400       1.67115000
H        6.42738200      -1.43367700       0.43417500
