57
Properties=species:S:1:pos:R:3 pbc="F F F"
Si      -0.12334900       0.46385900       0.76283700
O        0.17429400       1.42160600      -0.54378800
C        0.46735300       2.83577700      -0.63806500
C       -0.77887700       3.66135800      -0.40892600
H        1.22657300       3.10086800       0.10210300
C       -1.92707500       3.44693100      -1.18382900
C       -0.79212100       4.65532800       0.57562500
C       -3.07627600       4.20930700      -0.96955700
H       -1.91962300       2.67496700      -1.94754000
C       -1.93947500       5.42614800       0.78795300
H        0.09454700       4.81427900       1.18373300
C       -3.08450400       5.20200800       0.01774500
H       -3.96427100       4.03111400      -1.57051000
H       -1.94140900       6.19277100       1.55839000
H       -3.97959800       5.79513900       0.18616800
C        1.04390400       3.06966900      -2.05240900
C        2.30133800       2.36355900      -2.28511900
H        1.19566600       4.14963900      -2.17331500
H        0.29440600       2.76324500      -2.79264500
C        3.34660800       1.77975200      -2.45726800
H        4.26924900       1.26565000      -2.60875100
Cl      -1.94775000       0.20176300       1.82276800
Cl       0.66931500       1.76458800       2.34454600
O       -0.77578500      -0.70097700      -0.62498200
O        1.08285300      -0.79976100       1.21065600
C       -0.22882800      -2.85105900      -0.07263500
C        1.15300900      -2.46484900      -0.41887200
C        3.11734700      -1.14603200       0.01843100
C       -2.54982100      -2.24873700      -0.23720900
C       -2.88199000      -3.55331900       0.28230400
C       -0.53418400      -4.14602300       0.35622500
C       -1.85201000      -4.47237200       0.58297200
C        1.78414900      -3.11896200      -1.48455800
C        3.01598100      -2.67698500      -1.90863900
C        3.71029800      -1.68990100      -1.17777400
H        0.27331000      -4.84700500       0.52956300
H       -2.11940200      -5.44858700       0.97383700
H        1.24829600      -3.90764000      -1.99807400
H        3.47887400      -3.09806600      -2.79525800
C        5.00800000      -1.28537500      -1.57221500
C        3.94187000      -0.37402300       0.88511700
N       -1.19457900      -1.93481200      -0.29601800
N        1.78116100      -1.47586000       0.25094400
C       -3.61016300      -1.39842800      -0.66730500
C       -4.23785500      -3.91978400       0.46130000
C       -5.24048500      -3.04694500       0.10944700
C       -4.92087600      -1.80407400      -0.47120300
Cl      -3.39159300       0.11252400      -1.51511400
H       -4.45769200      -4.90291000       0.86460200
H       -6.28316300      -3.31501700       0.24455100
H       -5.71882600      -1.14549800      -0.79668100
C        5.72343000      -0.40781600      -0.79035800
C        5.20136800       0.01216100       0.44728100
Cl       3.56181200      -0.03686000       2.54959700
H        5.42276600      -1.70009700      -2.48496100
H        6.71445700      -0.07991500      -1.08615400
H        5.81471800       0.61265200       1.11032300
