57
Properties=species:S:1:pos:R:3 pbc="F F F"
Si       0.26145600      -1.12923000       0.72656200
O       -1.32999400      -1.22215600       0.34003700
C       -2.25285200      -1.61074300      -0.70046800
C       -2.01176800      -0.81881600      -1.96828300
H       -3.22640500      -1.31922900      -0.29325000
C       -0.83572100      -0.97317400      -2.71606100
C       -2.97791200       0.09764700      -2.39912500
C       -0.62311700      -0.20463000      -3.86185300
H       -0.08183500      -1.68498600      -2.39646400
C       -2.77216800       0.86258700      -3.55069900
H       -3.89177200       0.21651400      -1.82312400
C       -1.58995300       0.71679700      -4.28177300
H        0.29556500      -0.32758100      -4.42954500
H       -3.52984200       1.57287300      -3.87121500
H       -1.42350100       1.31307600      -5.17505100
C       -2.30903200      -3.13374200      -0.95847400
C       -2.56771700      -3.90439000       0.25414100
H       -3.12255100      -3.28996000      -1.67943100
H       -1.38454400      -3.47055900      -1.43503700
C       -2.78746100      -4.51799300       1.27298000
H       -2.97261200      -5.06814800       2.16947000
Cl       1.09657800      -1.59797600       2.61628100
Cl       0.93428400      -3.01451900      -0.16614500
O        1.27917400      -0.21821400      -0.45553600
O       -0.12453200       0.52933700       1.59762800
C        1.44315700       2.02293000       0.16885800
C       -0.01743100       2.16168500       0.00718400
C       -2.16846300       1.55606800       0.89447300
C        3.43298900       0.68318800      -0.02084800
C        4.16467700       1.72907200       0.64867800
C        2.17994500       3.11327900       0.64880600
C        3.50878200       2.93937200       0.96207400
C       -0.57334300       3.08117600      -0.88616800
C       -1.94356100       3.19203300      -0.94462900
C       -2.76542200       2.45189100      -0.06548600
H        1.65996200       4.04344700       0.84293500
H        4.07207000       3.73607300       1.43709000
H        0.08349200       3.65148000      -1.53165500
H       -2.41297700       3.85620400      -1.66246200
C       -4.17259000       2.58902700      -0.12597900
C       -3.01719300       0.89618700       1.83203400
N        2.04963400       0.84542600      -0.09454100
N       -0.78814500       1.41912100       0.82727200
C        4.16578600      -0.40052800      -0.58148100
C        5.54139400       1.55803500       0.92937000
C        6.19084400       0.41573700       0.51989700
C        5.51108500      -0.53394200      -0.26673900
Cl       3.53692000      -1.47766000      -1.79740600
H        6.06512900       2.35208300       1.45118800
H        7.24250600       0.26564400       0.74011400
H        6.05789800      -1.37173400      -0.68601600
C       -4.97201700       1.88169600       0.74033000
C       -4.38987100       1.05592600       1.72211500
Cl      -2.46134600      -0.05318000       3.18762900
H       -4.59480300       3.25899300      -0.86757100
H       -6.05256400       1.96937500       0.69608300
H       -5.02702400       0.54052500       2.43257200
