57
Properties=species:S:1:pos:R:3 pbc="F F F"
Si      -0.39397700       0.71430400       1.02411600
O        0.52373100       1.42304900      -0.14185800
C        1.62808100       2.33976000      -0.14857800
C        2.76967200       1.74306000      -0.94518400
H        1.95990000       2.54366600       0.87211800
C        2.53569200       1.07282400      -2.15405100
C        4.08637700       1.92210400      -0.50536800
C        3.60636500       0.59816300      -2.91455400
H        1.51442600       0.91907900      -2.49036400
C        5.15947200       1.45287700      -1.26950300
H        4.26956400       2.43193200       0.43778500
C        4.92098800       0.79351500      -2.47817100
H        3.41541400       0.07589800      -3.84858400
H        6.17751500       1.59610700      -0.91706000
H        5.75310800       0.42329700      -3.07117900
C        1.14638700       3.66306400      -0.79401800
C        0.07395400       4.30040600      -0.03456900
H        2.01014000       4.33540000      -0.86998900
H        0.81114700       3.44518200      -1.81615800
C       -0.81772700       4.79434900       0.61615500
H       -1.60507000       5.23106900       1.19042200
Cl       0.65354700       1.46851300       2.79421500
Cl      -2.28578000       1.15666500       1.88648200
O       -1.31007200       0.10207300      -0.57783400
O        0.01364500      -0.99106500       1.40954500
C       -1.72561000      -2.13077900      -0.35588400
C       -0.26257500      -2.28106800      -0.50495600
C        1.95187500      -1.87783200       0.34891600
C       -3.58109200      -0.61628900      -0.57752400
C       -4.46454800      -1.72798000      -0.32241400
C       -2.56834000      -3.23331800      -0.19380400
C       -3.92729400      -3.02061100      -0.12648300
C        0.25337900      -2.93110000      -1.63296600
C        1.61127300      -2.89426600      -1.86358400
C        2.48933700      -2.35960000      -0.89701000
H       -2.13044100      -4.21880000      -0.09276500
H       -4.60615900      -3.84717900       0.05656700
H       -0.44059100      -3.36446600      -2.34232400
H        2.02493400      -3.28824700      -2.78640100
C        3.88688600      -2.33758800      -1.11177500
C        2.84914800      -1.61220700       1.41846400
N       -2.21810100      -0.87924300      -0.48591500
N        0.56871900      -1.73817800       0.40809700
C       -4.15052700       0.64554300      -0.92067400
C       -5.86558600      -1.52399300      -0.29901900
C       -6.38518000      -0.27632400      -0.55312400
C       -5.52815900       0.79196000      -0.88408600
Cl      -3.24231800       2.03021200      -1.48097300
H       -6.50870900      -2.37236800      -0.08952600
H       -7.45679300      -0.10717600      -0.53328800
H       -5.95183600       1.75727500      -1.13936300
C        4.72892000      -1.90170400      -0.11506600
C        4.21076600      -1.58612000       1.15562700
Cl       2.36021900      -1.50579200       3.08737100
H        4.26806800      -2.67887800      -2.06789300
H        5.80022000      -1.85452200      -0.27628700
H        4.89014400      -1.36231200       1.97117100
