57
Properties=species:S:1:pos:R:3 pbc="F F F"
Si      -0.00662200      -0.39918200       1.10254000
O       -0.16761000      -1.74818900       0.17235000
C        0.49756100      -2.29466100      -0.97635700
C        1.80772700      -2.96329200      -0.60457000
H        0.68545900      -1.50951700      -1.71492900
C        2.09992400      -3.35270100       0.70603300
C        2.73484900      -3.22783200      -1.62296700
C        3.31351000      -3.98491300       0.99747500
H        1.38495600      -3.15595100       1.49857000
C        3.94444600      -3.86167300      -1.33359800
H        2.51278400      -2.92186600      -2.64324600
C        4.23838700      -4.24036300      -0.01843600
H        3.53413700      -4.27682900       2.02093600
H        4.65874700      -4.05292200      -2.13014800
H        5.18207500      -4.72817400       0.21077300
C       -0.46504500      -3.34037600      -1.59282800
C       -1.68867600      -2.76571400      -2.14487500
H        0.08044000      -3.86797000      -2.38464100
H       -0.70625800      -4.07805800      -0.81708200
C       -2.69721200      -2.29909900      -2.62249400
H       -3.59658700      -1.90310100      -3.03720700
Cl       1.63805000       0.36025300       2.21407400
Cl      -0.79441500      -1.45822900       2.85363300
O        0.64709500       0.49791100      -0.46360300
O       -1.37112700       0.77263700       1.16810600
C       -0.22505400       2.60743300      -0.52276600
C       -1.51025900       1.95239400      -0.83650700
C       -3.34588800       0.55801500      -0.14541800
C        2.15782800       2.34888800      -0.32696000
C        2.25238900       3.77464100      -0.12242500
C       -0.14053800       3.99881600      -0.41635000
C        1.08609800       4.56974700      -0.16454700
C       -2.13506400       2.23471800      -2.05735200
C       -3.28784400       1.56241000      -2.39349500
C       -3.91933600       0.71585000      -1.45862700
H       -1.04648000       4.58695500      -0.49582000
H        1.17608700       5.64063600      -0.01499000
H       -1.65212500       2.92546400      -2.73719400
H       -3.73681800       1.69236300      -3.37281100
C       -5.13589600       0.06827000      -1.78066700
C       -4.13126500      -0.07317400       0.86054500
N        0.87052800       1.82393500      -0.42836400
N       -2.07194200       1.09302500       0.04061800
C        3.36436300       1.59758700      -0.42903600
C        3.51596500       4.37755200       0.08932200
C        4.65832500       3.61252400       0.06692300
C        4.57639100       2.23491200      -0.21424600
Cl       3.44567100      -0.08323400      -0.88919600
H        3.55488200       5.44929300       0.25420100
H        5.63164800       4.06241700       0.23285200
H        5.48619100       1.64873900      -0.28629200
C       -5.78929000      -0.68251000      -0.83096500
C       -5.30419400      -0.71621800       0.49025200
Cl      -3.83104900       0.07698700       2.56853400
H       -5.53789200       0.19249800      -2.78090500
H       -6.71255400      -1.19974300      -1.06985300
H       -5.88654200      -1.20887500       1.26148500
