57
Properties=species:S:1:pos:R:3 pbc="F F F"
Si      -0.20825200      -0.92780900      -0.30534300
O        1.29845200      -0.54591800       0.25391800
C        2.18620600      -1.15130900       1.22360700
C        3.27786200      -1.92568300       0.52116300
H        1.62186100      -1.82635600       1.86960700
C        4.17836700      -1.28364800      -0.33998300
C        3.40071500      -3.30369200       0.73395800
C        5.18171700      -2.00890800      -0.98406700
H        4.08862600      -0.21629300      -0.51267300
C        4.40822500      -4.03309100       0.09449700
H        2.69840000      -3.80446600       1.39521100
C        5.29942800      -3.38711100      -0.76724300
H        5.87108400      -1.50176400      -1.65421300
H        4.49286300      -5.10315400       0.26506300
H        6.08034300      -3.95281200      -1.26869700
C        2.75252400      -0.00176400       2.08799100
C        1.71882700       0.66839900       2.87216900
H        3.51115600      -0.42740100       2.75657300
H        3.26515700       0.71727900       1.43758500
C        0.83868000       1.19230000       3.51497700
H        0.06812400       1.65982300       4.08712300
Cl      -0.73038600      -1.63947100      -2.22891400
Cl      -0.38076700      -2.90403200       0.62655800
O       -1.56072700      -0.32469200       0.73010200
O       -0.19228700       0.75576100      -1.19041300
C       -2.25744800       1.78207500       0.00616800
C       -0.91619200       2.32097500       0.30844300
C        1.39481500       2.33093500      -0.35168500
C       -3.80698300      -0.06005400      -0.00443400
C       -4.70969100       0.74491500      -0.78893900
C       -3.20179700       2.62626700      -0.59244200
C       -4.38160000       2.09136600      -1.05584800
C       -0.72495300       3.37354400       1.20843000
C        0.55331100       3.84206400       1.40855800
C        1.63286100       3.34283500       0.64544600
H       -2.93861100       3.66393200      -0.75586600
H       -5.07989100       2.70168500      -1.61925400
H       -1.57500800       3.75782100       1.75904300
H        0.74978300       4.61055200       2.14878000
C        2.94206800       3.84194100       0.84386600
C        2.46421700       1.95507700      -1.21608400
N       -2.54412500       0.48220800       0.23653800
N        0.10959300       1.81038700      -0.40117200
C       -4.27558100      -1.31088100       0.48806000
C       -5.93867500       0.20104900      -1.23247700
C       -6.29345500      -1.07963300      -0.87498400
C       -5.48081500      -1.80963900       0.01319200
Cl      -3.52888700      -2.18753700       1.79433000
H       -6.59140800       0.82306600      -1.83597900
H       -7.22622000      -1.51442200      -1.21843000
H       -5.82133500      -2.77098700       0.38284400
C        3.97722500       3.39398700       0.05651100
C        3.72694500       2.47820600      -0.98493900
Cl       2.29146100       0.93860400      -2.62380500
H        3.10011700       4.58507700       1.61834100
H        4.98652500       3.76375500       0.20378500
H        4.53717900       2.18288000      -1.64282800
