57
Properties=species:S:1:pos:R:3 pbc="F F F"
Si      -0.01158100      -0.75297300      -0.35806300
O        1.46982000      -0.25508600       0.17120500
C        2.54688300      -0.77123000       0.98238700
C        3.16371100      -2.03007000       0.38778700
H        3.29619300       0.02790300       0.91702000
C        3.54062900      -3.13390900       1.16255300
C        3.40688400      -2.06131600      -0.99382400
C        4.13624100      -4.25079700       0.56686900
H        3.36216500      -3.14572500       2.23265700
C        3.99488600      -3.17667500      -1.59098100
H        3.11815900      -1.21136900      -1.60348100
C        4.36289000      -4.27865900      -0.81107100
H        4.41486200      -5.10154400       1.18330500
H        4.16686800      -3.18516200      -2.66429300
H        4.82048000      -5.14928300      -1.27347400
C        2.13708900      -0.88736600       2.46577900
C        1.58830000       0.35061900       3.01190300
H        3.03448900      -1.15840900       3.03550300
H        1.41491900      -1.70170900       2.58546900
C        1.13725000       1.36714800       3.48709100
H        0.73859100       2.25855000       3.91749800
Cl      -0.51077800      -1.45378100      -2.29291800
Cl      -0.02943300      -2.74767900       0.53116300
O       -1.38635600      -0.26803300       0.71520200
O       -0.14317500       0.95138600      -1.20291400
C       -2.26394000       1.78416400       0.03061900
C       -0.96912600       2.42532500       0.33092600
C        1.33590300       2.61218700      -0.32340900
C       -3.65978700      -0.17559800       0.02698500
C       -4.63811500       0.56052800      -0.73416000
C       -3.28175300       2.55478300      -0.54577800
C       -4.42280600       1.93105100      -0.99557300
C       -0.85665200       3.47383400       1.24850200
C        0.38466100       4.03040700       1.45832200
C        1.50046500       3.61771500       0.69584200
H       -3.10209600       3.61100500      -0.70362600
H       -5.17714000       2.48723200      -1.54283000
H       -1.73331900       3.78424800       1.80405500
H        0.52359300       4.80079800       2.20967100
C        2.77259300       4.19897800       0.91436400
C        2.43591100       2.32369000      -1.18191600
N       -2.44053900       0.46335400       0.25122400
N        0.08927900       2.00622000      -0.39030100
C       -4.01733300      -1.46365700       0.51667600
C       -5.82737900      -0.07768300      -1.16029900
C       -6.07095200      -1.38589600      -0.80928600
C       -5.18626000      -2.05502500       0.05777600
Cl      -3.17998700      -2.28474700       1.80404600
H       -6.53903300       0.49465900      -1.74589200
H       -6.97173000      -1.89163000      -1.14070200
H       -5.44126300      -3.04358600       0.42451100
C        3.84383200       3.82421000       0.13764300
C        3.66354000       2.90988500      -0.91987000
Cl       2.33363100       1.35589600      -2.63309900
H        2.87379100       4.94222000       1.69843700
H        4.82675000       4.25271100       0.30353500
H        4.49860500       2.67299600      -1.57030400
