63
Properties=species:S:1:pos:R:3 pbc="F F F"
Si      -0.44889600       0.86801400       0.92246500
O        0.25510300       1.77255200      -0.25541900
C        1.40842700       2.62482300      -0.27526400
C        2.63473800       1.85204800      -0.71382600
H        1.57835600       3.05306900       0.71634500
C        2.55475100       0.87900600      -1.72074300
C        3.87835700       2.15162800      -0.14744800
C        3.70684400       0.22554700      -2.16188200
H        1.58745500       0.63444300      -2.14998500
C        5.03261500       1.49680300      -0.58732600
H        3.94049800       2.89577900       0.64330000
C        4.94871800       0.53601000      -1.59914600
H        3.63565500      -0.53139000      -2.93820600
H        5.99301800       1.73152400      -0.13608100
H        5.84380600       0.02050000      -1.93624900
C        1.10173600       3.77410500      -1.26722300
C       -0.03703900       4.58885400      -0.84976900
H        2.00206200       4.39558500      -1.34991200
H        0.91612500       3.33583500      -2.25629400
C       -0.98383000       5.24169600      -0.47495000
H       -1.81791700       5.82353600      -0.14872100
Cl       0.46247900       1.79652500       2.71260500
Cl      -2.38805800       1.29986400       1.71357200
O       -1.22574700      -0.00602100      -0.55903100
O        0.28942800      -0.68263500       1.44237100
C       -1.77967800      -2.10804300       0.17072700
C       -0.34795100      -2.43425700       0.02218700
C        2.00111500      -1.98861700       0.40764900
C       -3.52554600      -0.60310200      -0.55137000
C       -4.48963400      -1.56774900      -0.08584300
C       -2.70939000      -3.06976400       0.58323600
C       -4.05250300      -2.77716000       0.49803900
C       -0.04463100      -3.51198900      -0.82091000
C        1.26520200      -3.77057400      -1.14453200
C        2.30242700      -3.02103700      -0.55889700
H       -2.34721800      -4.01376300       0.97178700
H       -4.79333500      -3.48664100       0.85288100
H       -0.86366700      -4.07386200      -1.25182700
H        1.51474000      -4.55869200      -1.84784200
C        3.64735200      -3.32412600      -0.88076200
C        3.06484500      -1.37755700       1.13733200
N       -2.19233800      -0.91258100      -0.30246700
N        0.63852500      -1.69823100       0.58279400
C       -3.93984900       0.58023600      -1.23537900
C       -5.87146900      -1.29564700      -0.23464400
C       -6.27408000      -0.13377700      -0.84910200
C       -5.31221900       0.76789500      -1.35318000
C       -3.02101300       1.59712400      -1.87106400
H       -6.58698000      -2.02477700       0.13202900
H       -7.32966000       0.08829800      -0.97131400
H       -5.65593700       1.65684500      -1.87440600
C        4.66691300      -2.66800400      -0.23819400
C        4.35892100      -1.73528200       0.76810300
C        2.92742300      -0.42138500       2.29132100
H        3.83863600      -4.09260100      -1.62289000
H        5.70416600      -2.88320200      -0.47395200
H        5.17643500      -1.26991700       1.30972500
H       -3.62169800       2.30369100      -2.45121000
H       -2.45163000       2.15423800      -1.12289400
H       -2.29648000       1.11951400      -2.53643600
H        2.66181300       0.57733100       1.94297600
H        2.16055800      -0.73469700       3.00062100
H        3.88768600      -0.35315900       2.81052400
