63
Properties=species:S:1:pos:R:3 pbc="F F F"
Si       0.15748100      -0.37344500       1.22243000
O        0.17691600      -1.80597900       0.41753800
C        0.70609200      -2.24452100      -0.84195000
C        2.09653100      -2.83086800      -0.68286500
H        0.75051900      -1.40843500      -1.54487400
C        2.62056800      -3.18918200       0.56338200
C        2.87177900      -3.02369800      -1.83534200
C        3.90824900      -3.72944300       0.65518200
H        2.02809800      -3.03564300       1.45956100
C        4.15430400      -3.56523900      -1.74504400
H        2.47303000      -2.73409500      -2.80539200
C        4.67755600      -3.91920000      -0.49561700
H        4.30884800      -3.99940600       1.62883900
H        4.74774800      -3.70380700      -2.64503500
H        5.67871200      -4.33553400      -0.42164500
C       -0.27599800      -3.30054600      -1.40787000
C       -1.56016000      -2.73068000      -1.80948300
H        0.20273000      -3.77479000      -2.27309200
H       -0.41919600      -4.07870500      -0.64746400
C       -2.60954600      -2.23982600      -2.15721100
H       -3.54680600      -1.82508800      -2.45585200
Cl       1.93523800       0.53049600       2.00955900
Cl      -0.22704500      -1.28032000       3.19058400
O        0.39879900       0.59120100      -0.38420000
O       -1.46825400       0.36812400       1.38379600
C       -0.58579500       2.63600300      -0.01041200
C       -1.88421500       1.98352500      -0.25224600
C       -3.44768500       0.15689700       0.05141100
C        1.79086200       2.52781700      -0.43172500
C        1.87397600       3.92074700      -0.06868600
C       -0.51676900       4.00191400       0.29072000
C        0.71121000       4.62238000       0.31391400
C       -2.73067300       2.61122400      -1.17629600
C       -3.92680400       2.02569800      -1.50589000
C       -4.30509000       0.80370000      -0.91843300
H       -1.43398800       4.53113800       0.51741200
H        0.79546500       5.66708400       0.59564500
H       -2.39995500       3.53457900      -1.63448800
H       -4.58930600       2.49228500      -2.22772100
C       -5.54389400       0.22213100      -1.28159100
C       -3.87101200      -1.07018700       0.65076100
N        0.53995000       1.93176300      -0.27490200
N       -2.24107100       0.81862200       0.33504600
C        2.93359600       1.83865700      -0.93646200
C        3.12554400       4.58131200      -0.12061200
C        4.23819200       3.90169700      -0.55515500
C        4.12129500       2.55985400      -0.97510500
C        2.94122700       0.42556900      -1.46097700
H        3.17250600       5.62522500       0.17253900
H        5.20367700       4.39546000      -0.60307000
H        5.00268300       2.05723800      -1.36301300
C       -5.94628700      -0.95191500      -0.69524400
C       -5.11057700      -1.56700400       0.25404500
C       -3.09603100      -1.88987300       1.64324700
H       -6.15497600       0.73253600      -2.01917300
H       -6.89516100      -1.40938400      -0.95658900
H       -5.43743900      -2.50042500       0.70218600
H        3.89289100       0.23303400      -1.96367700
H        2.83125200      -0.30023300      -0.65242800
H        2.12772100       0.25459700      -2.17035000
H       -2.14767100      -2.22584800       1.21848300
H       -2.86957900      -1.32491600       2.54768500
H       -3.68031200      -2.77277700       1.91629400
