63
Properties=species:S:1:pos:R:3 pbc="F F F"
Si      -0.30812000      -0.42480000       1.19045400
O        1.22705300       0.18494100       1.19607600
C        1.87035100       1.32977800       1.80031900
C        2.12769100       2.33887500       0.69340100
H        1.19658700       1.77445300       2.53713200
C        3.40730000       2.68554400       0.24540600
C        1.01125300       2.92489400       0.07460500
C        3.56969300       3.59209200      -0.80802600
H        4.28766300       2.24919700       0.70537300
C        1.16973300       3.81840300      -0.98333300
H        0.01394100       2.66994900       0.42261900
C        2.45397000       4.15300200      -1.43162500
H        4.57018600       3.84832300      -1.14581600
H        0.29505400       4.25792300      -1.45551800
H        2.58083900       4.85105600      -2.25481900
C        3.13366600       0.83249600       2.52459000
C        2.82779800      -0.06058000       3.63901900
H        3.68207600       1.70871000       2.89273100
H        3.78317300       0.32041600       1.80427100
C        2.56079500      -0.79746900       4.55937300
H        2.32135500      -1.45036000       5.36990000
Cl      -1.03283300      -2.28759100       1.87545400
Cl      -1.05117800       0.68431500       2.91673500
O       -1.47595500       0.47328400       0.13479100
O        0.26619600      -1.45382600      -0.31387000
C       -1.37622200      -0.42910600      -2.02497700
C        0.05288000      -0.06151300      -2.11222400
C        2.25850800      -0.65086100      -1.36539000
C       -3.46525800      -0.37872200      -0.83992800
C       -3.97285000      -1.35701800      -1.76233300
C       -1.93807300      -1.19248900      -3.05513500
C       -3.19140800      -1.73391500      -2.87521300
C        0.54006600       0.83928800      -3.05744400
C        1.89499200       1.09511100      -3.07514300
C        2.77212200       0.35967700      -2.24988000
H       -1.32849400      -1.42265000      -3.91987900
H       -3.59713000      -2.44083200      -3.59161300
H       -0.15618600       1.35165400      -3.70957900
H        2.30671900       1.84921500      -3.73639100
C        4.16860900       0.59934000      -2.30180700
C        3.16767100      -1.50317000      -0.66848100
N       -2.10002100      -0.10840700      -0.93197600
N        0.87789400      -0.72390900      -1.27554300
C       -4.36657200       0.23890400       0.06944900
C       -5.27085100      -1.89251900      -1.56802500
C       -5.62118400      -0.33794100       0.22879400
C       -6.05531800      -1.44015600      -0.53394900
H       -5.62486500      -2.64933800      -2.26062300
C       -4.17763800       1.60836300       0.72579600
H       -6.31707800       0.11796500       0.92431700
H       -7.03872300      -1.86068300      -0.35487400
C        5.02512900      -0.14739700      -1.53420300
C        4.52042400      -1.20961500      -0.75467000
C        2.78056200      -2.80403400       0.04184500
H        4.53235900       1.37827200      -2.96305600
H        6.09372800       0.03715400      -1.55220700
H        5.22783500      -1.84075100      -0.23105800
F        3.87446400      -3.59822200       0.22375100
F        1.91427400      -3.53460100      -0.70828400
F        2.24653000      -2.62209300       1.26703300
F       -3.83370000       1.53330100       2.02553600
F       -5.36044300       2.29537300       0.68126500
F       -3.27864300       2.38497900       0.07706800
