63
Properties=species:S:1:pos:R:3 pbc="F F F"
Si      -0.11835100      -0.24807000       1.28137300
O        1.35206300       0.46444800       1.12841900
C        2.04675200       1.72909800       1.10830200
C        1.61245800       2.57018600      -0.07346000
H        3.09130100       1.43668200       0.95878200
C        0.29423300       3.03057400      -0.20305700
C        2.54680600       2.89053600      -1.06534300
C       -0.08364200       3.77904100      -1.31931200
H       -0.44110900       2.79516400       0.55914600
C        2.17310600       3.64443900      -2.18108000
H        3.57026900       2.53921200      -0.96519100
C        0.85337800       4.08527500      -2.31298100
H       -1.10985200       4.12370600      -1.41256800
H        2.90862500       3.88321400      -2.94486700
H        0.55677300       4.66836300      -3.18090100
C        1.99345400       2.51668200       2.43823300
C        2.43367600       1.72372100       3.58213200
H        2.66210800       3.37737200       2.30324800
H        0.98818500       2.91203800       2.60709400
C        2.81014100       1.04204000       4.50752200
H        3.13140600       0.44415000       5.33212900
Cl      -0.65878400      -1.95929200       2.41209500
Cl      -0.99530700       1.12094000       2.73157800
O       -1.32535700       0.27830000       0.03285200
O        0.53846100      -1.59767000       0.07868900
C       -1.23404500      -1.23480600      -1.75300500
C        0.15512400      -0.80686000      -2.02344200
C        2.42030200      -0.92626200      -1.23454500
C       -3.30119300      -0.87389000      -0.58924500
C       -3.78812200      -2.11240500      -1.12647400
C       -1.77967700      -2.31373200      -2.45862700
C       -3.00486200      -2.81200600      -2.07019000
C        0.52706600      -0.16836300      -3.20640300
C        1.84749600       0.19614900      -3.36005700
C        2.81008400      -0.17152200      -2.39498200
H       -1.17984400      -2.78850300      -3.22509600
H       -3.39138000      -3.72920800      -2.50245400
H       -0.23115400       0.07051700      -3.94219300
H        2.16560600       0.76541200      -4.22687900
C        4.16644400       0.20891800      -2.55780700
C        3.42340900      -1.42039600      -0.34652600
N       -1.94755500      -0.61503600      -0.78976800
N        1.05727200      -1.11582200      -1.07189100
C       -4.20664100       0.00122700       0.06826200
C       -5.07194200      -2.57568500      -0.74171800
C       -5.44853700      -0.50732100       0.42702700
C       -5.85891300      -1.81340400       0.08933700
H       -5.41717600      -3.52650000      -1.13507700
C       -4.02692000       1.51738500       0.17873100
H       -6.15459400       0.14600800       0.92734800
H       -6.83237400      -2.16705100       0.41100500
C        5.10050100      -0.15619200      -1.62205100
C        4.72720500      -0.99466500      -0.54929800
C        3.20036400      -2.50328400       0.71493100
H        4.43617700       0.79558900      -3.42983200
H        6.13637400       0.15000400      -1.72052300
H        5.50317500      -1.34740000       0.11871200
F        2.66151500      -2.04695400       1.86441100
F        4.38441000      -3.08564000       1.06112700
F        2.42056200      -3.50667000       0.23534100
F       -3.59057800       1.93380900       1.38122300
F       -5.23002100       2.13240300      -0.02709900
F       -3.19371500       2.00246500      -0.77621100
