63
Properties=species:S:1:pos:R:3 pbc="F F F"
Si      -0.32231200       0.18663100       1.22328900
O        0.38922700       1.42392900       0.40378100
C        1.38090700       2.41051800       0.73161000
C        2.41992500       2.45063000      -0.36926000
H        1.86310300       2.16258900       1.68020700
C        2.04328400       2.44428000      -1.71953800
C        3.77396000       2.57235000      -0.03672000
C        3.00920000       2.56837600      -2.72033600
H        0.99425900       2.33771700      -1.98056100
C        4.74103300       2.70708000      -1.03750700
H        4.06931100       2.56669300       1.01000900
C        4.35991600       2.70892200      -2.38162900
H        2.70841000       2.56043700      -3.76489600
H        5.78908500       2.80305800      -0.76676300
H        5.10990100       2.81022400      -3.16154100
C        0.67909800       3.78486000       0.86175100
C       -0.29488800       3.82657600       1.94901100
H        1.45522200       4.54458300       1.01916100
H        0.19061400       4.01147600      -0.09472300
C       -1.09943400       3.82928100       2.85154700
H       -1.81202000       3.82697200       3.64685800
Cl       0.78923200       0.32178000       3.08996500
Cl      -2.15174000      -0.12900400       2.26153100
O       -1.35660300       0.19540600      -0.45128100
O        0.33820800      -1.43970200       0.81424900
C       -1.43511700      -1.95813300      -1.19661700
C        0.00299200      -1.74473500      -1.47550400
C        2.22989800      -1.46188900      -0.62336600
C       -3.48632200      -0.83456200      -0.65090800
C       -4.15221000      -2.10479600      -0.73931200
C       -2.08395100      -3.17294100      -1.41773400
C       -3.42947600      -3.25652400      -1.12295900
C        0.45866300      -1.62988100      -2.79437000
C        1.75199900      -1.20346100      -3.01525900
C        2.66143800      -1.09664100      -1.94048400
H       -1.51078700      -4.02511000      -1.76197000
H       -3.95357200      -4.20351300      -1.19840900
H       -0.24842800      -1.77311300      -3.60220500
H        2.08955300      -0.96314000      -4.01830800
C        4.00407200      -0.68757200      -2.13357900
C        3.19458500      -1.70057800       0.38950400
N       -2.10462400      -0.86901900      -0.76304200
N        0.85666800      -1.57798900      -0.44665400
C       -4.25059900       0.35671600      -0.46578100
C       -5.53937100      -2.18126500      -0.45050700
C       -5.60011300       0.21378100      -0.18309300
C       -6.23835000      -1.04489100      -0.12725600
H       -6.02475000      -3.15094300      -0.49872000
C       -3.72854400       1.77438800      -0.72635000
H       -6.20265700       1.10143700      -0.03445100
H       -7.29456600      -1.09287700       0.11491300
C        4.88401400      -0.69689100      -1.07710400
C        4.49343800      -1.27248100       0.14940500
C        2.97348000      -2.63149200       1.58436300
H        4.31451700      -0.37914300      -3.12557100
H        5.90358800      -0.35137500      -1.20325500
H        5.24888600      -1.44651100       0.90766300
F        1.97865100      -3.52542100       1.34949100
F        2.71265100      -2.00411100       2.74563700
F        4.10312300      -3.37163600       1.79342500
F       -2.99521400       2.29667700       0.27879800
F       -4.76541200       2.63771200      -0.92317000
F       -2.98788800       1.81659500      -1.86719900
