75
Properties=species:S:1:pos:R:3 pbc="F F F"
Si      -0.28728600       0.06646900       1.45789400
O        0.16166700       1.62750600       1.18018500
C       -0.06121500       2.56142800       0.09820200
C        1.07830600       2.51272200      -0.89311300
H       -0.99696600       2.33588100      -0.41194900
C        2.40810300       2.62841900      -0.46078900
C        0.80855200       2.41763400      -2.26226900
C        3.44764000       2.67214000      -1.38988700
H        2.62225700       2.68488000       0.60266400
C        1.85087100       2.45694100      -3.19494200
H       -0.22056400       2.31888800      -2.59816000
C        3.17091500       2.59375400      -2.75958700
H        4.47421600       2.76236600      -1.04730800
H        1.63055000       2.38404100      -4.25671500
H        3.98269300       2.62729300      -3.48116700
C       -0.18289300       3.96350300       0.73916100
C       -1.34511400       4.07771400       1.61688300
H       -0.25193200       4.69776200      -0.07350800
H        0.73957300       4.17686100       1.29346600
C       -2.32016000       4.13794200       2.32981400
H       -3.17637300       4.19518700       2.96527200
Cl       0.74151900       0.11537000       3.40829400
Cl      -2.08118300      -0.64883600       2.35327700
O       -1.12520900       0.07926300      -0.24326200
O        0.71378500      -1.32650400       0.92865900
C       -0.85752600      -1.95698900      -1.22382000
C        0.55643500      -1.56154100      -1.38097100
C        2.70073000      -1.06463100      -0.37689100
C       -3.09510500      -1.19978600      -0.70282600
C       -3.55823900      -2.51733000      -1.07043800
C       -1.31289000      -3.19699500      -1.67530000
C       -2.65263900      -3.48944800      -1.54620600
C        1.08202200      -1.43808100      -2.66949300
C        2.36855000      -0.97007500      -2.82327300
C        3.19866500      -0.78545400      -1.70078100
H       -0.59822900      -3.90515500      -2.07635600
H       -3.03430100      -4.46624700      -1.82643400
H        0.43616800      -1.64263200      -3.51435800
H        2.76794900      -0.76801600      -3.81157700
N       -1.70917400      -1.04002400      -0.71661900
N        1.32536800      -1.30695000      -0.29873200
C        3.60122600      -1.14954500       0.73166500
C        4.54523100      -0.38422900      -1.87126700
H        4.89415000      -0.15502700      -2.87231100
C        4.90283000      -0.72164800       0.48434500
C        5.37255600      -0.30804600      -0.77943600
H        6.40331100       0.01483800      -0.88660000
C       -4.02809200      -0.16317400      -0.37060400
C       -4.93739900      -2.82568100      -0.97777000
H       -5.26355700      -3.82612300      -1.24323900
C       -5.82140500      -1.85910400      -0.56966900
C       -5.36112800      -0.55223900      -0.30077700
H        5.61626100      -0.75300900       1.29905300
C       -3.67106700       1.31565400      -0.23108900
C       -3.28464000       1.87060700      -1.61993300
H       -2.98761200       2.92135600      -1.52596600
H       -2.45461300       1.31309800      -2.06448200
H       -4.14441000       1.81486300      -2.29840100
C       -4.78014500       2.18384800       0.37926800
H       -5.64524000       2.27180200      -0.28885600
H       -5.11699700       1.78695000       1.34342800
H       -4.37466100       3.18688400       0.54264100
C        3.27376200      -1.86943900       2.03420500
C        4.33519600      -1.71542600       3.13102600
H        5.27837300      -2.20823800       2.86462700
H        4.53881100      -0.66066600       3.34798000
H        3.95772600      -2.18692700       4.04425700
C        3.04672900      -3.36706000       1.72246200
H        2.77599800      -3.89299900       2.64492700
H        2.23924200      -3.51375800       0.99746400
H        3.96314800      -3.81686200       1.32049900
H       -2.81102400       1.40724600       0.42813900
H        2.34877900      -1.47231800       2.43731100
H       -6.10273200       0.19321700      -0.04130100
H       -6.88098000      -2.07869900      -0.48286400
