75
Properties=species:S:1:pos:R:3 pbc="F F F"
Si      -0.14301000       0.35421000       1.23659600
O        1.34636600       0.92956700       0.86833300
C        2.01847100       2.03886000       0.22791400
C        1.51629400       2.23102700      -1.18725600
H        3.05824800       1.69902900       0.18109500
C        0.28415500       2.84166400      -1.46227500
C        2.29060900       1.75286000      -2.25144300
C       -0.16922300       2.95407900      -2.77782200
H       -0.32825400       3.21478200      -0.64851200
C        1.83975200       1.86366600      -3.56916900
H        3.25008800       1.28648700      -2.04472800
C        0.60509500       2.46271900      -3.83498800
H       -1.12744900       3.42528200      -2.97791500
H        2.45052500       1.48375000      -4.38397300
H        0.24945300       2.55070400      -4.85824600
C        2.00124400       3.33435800       1.06858800
C        2.50743700       3.12883000       2.42280900
H        2.63604200       4.05643500       0.53809400
H        0.99178700       3.75250200       1.10317000
C        2.93317800       2.92622800       3.53663600
H        3.30224900       2.75407300       4.52390900
Cl      -0.65022700      -0.55944800       3.08364000
Cl      -1.10594700       2.25682400       1.83426700
O       -1.23997300       0.22906500      -0.17692700
O        0.49170200      -1.39446800       0.85435100
C       -1.27716500      -1.96509100      -0.94264700
C        0.13139900      -1.80360000      -1.35547800
C        2.40503900      -1.48430300      -0.60045500
C       -3.30444100      -0.95723900      -0.09163400
C       -3.88214000      -2.27525700      -0.03442800
C       -1.90426700      -3.20872100      -1.07392300
C       -3.16492400      -3.37815900      -0.54362400
C        0.52100600      -1.96302700      -2.68600800
C        1.85184500      -1.80029500      -2.99822300
C        2.80454600      -1.55734200      -1.98645000
H       -1.34561300      -4.02732400      -1.51017000
H       -3.62852100      -4.35952400      -0.53000900
H       -0.23314000      -2.16426400      -3.43693600
H        2.18758400      -1.85666200      -4.02877500
N       -1.94546200      -0.91874000      -0.41111900
N        1.03100900      -1.55532600      -0.38099800
C        3.38774400      -1.35845200       0.43751400
C        4.16645400      -1.38445400      -2.33364400
H        4.44385900      -1.42725900      -3.38199900
C        4.69734000      -1.17484600       0.00726100
C        5.09387000      -1.16278700      -1.34731300
H        6.13958800      -1.00860400      -1.59471600
C       -4.11028000       0.20437200       0.11664600
C       -5.19373800      -2.43440300       0.47668200
H       -5.61105800      -3.43453100       0.53736600
C       -5.90901600      -1.32497200       0.85795100
C       -5.38123600      -0.03497400       0.63134900
H        5.47247800      -1.05473600       0.75417000
C       -3.73456100       1.58948300      -0.40072100
C       -3.67095800       1.53119400      -1.94477700
H       -3.38856500       2.51560900      -2.33321200
H       -2.92952600       0.80437900      -2.29249800
H       -4.64951300       1.26011300      -2.35976200
C       -4.68125800       2.70942200       0.04842600
H       -5.68608000       2.59192800      -0.37567900
H       -4.76328000       2.75112900       1.14027600
H       -4.27916500       3.66530100      -0.30313700
C        3.10975100      -1.55214300       1.92567600
C        4.23777700      -1.07436900       2.85168600
H        5.13875700      -1.69295400       2.75915900
H        4.50309400      -0.02945500       2.65553900
H        3.88667100      -1.15189900       3.88607600
C        2.80850700      -3.04516800       2.18412500
H        2.55423600      -3.18885000       3.24042000
H        1.96847600      -3.39695200       1.57739500
H        3.69078100      -3.65448900       1.95156800
H       -2.74362700       1.84716800      -0.04361300
H        2.22719000      -0.98213800       2.19379600
H       -6.02575100       0.81350100       0.82750500
H       -6.90790000      -1.42665800       1.27044300
