75
Properties=species:S:1:pos:R:3 pbc="F F F"
Si      -0.23930700      -1.10278500      -0.20226300
O        0.86667400      -2.01590500       0.60240000
C        2.32033600      -2.05076700       0.57017200
C        2.84994300      -2.25645500      -0.82925800
H        2.71109900      -1.11168400       0.96093300
C        2.49055000      -3.38717500      -1.57506400
C        3.70854600      -1.30595700      -1.39249100
C        2.98682800      -3.56466500      -2.86708400
H        1.80790400      -4.11758400      -1.14934000
C        4.21116700      -1.48316800      -2.68487000
H        3.97352600      -0.42155600      -0.81833000
C        3.85044800      -2.61367000      -3.42406000
H        2.69972400      -4.44169600      -3.44109300
H        4.87704200      -0.73923300      -3.11444200
H        4.23662600      -2.75292600      -4.43040600
C        2.74436400      -3.19994500       1.51154500
C        2.27339500      -3.04100100       2.88586300
H        3.84051800      -3.24981600       1.49361200
H        2.37099500      -4.14479700       1.09793100
C        1.87599800      -2.90450600       4.01988900
H        1.52828400      -2.78552600       5.02263900
Cl      -0.32114000      -1.19794300      -2.31661900
Cl      -1.81374000      -2.58684400       0.15139300
O       -1.27562500       0.20212700       0.53316600
O        1.00437000       0.31183200      -0.29429300
C       -1.58100900       1.50868300      -1.34946300
C       -0.27357400       2.15543600      -1.13283300
C        1.81791600       2.43583100       0.05959900
C       -3.48323000       0.35576900      -0.34118700
C       -4.22391200       0.59448900      -1.55197100
C       -2.34116300       1.78938100      -2.50008100
C       -3.61231900       1.28404400      -2.62090300
C       -0.11712700       3.45695400      -1.66554600
C        1.05492500       4.15260600      -1.50991100
C        2.04530900       3.67154100      -0.62682400
H       -1.88579800       2.34951600      -3.30510800
H       -4.17289200       1.43246800      -3.53844200
H       -0.94263200       3.89746600      -2.20809800
H        1.19655000       5.10894800      -2.00270500
N       -2.13751600       0.72033100      -0.38650500
N        0.76827600       1.62689800      -0.41945300
C        2.62132500       2.06545300       1.17734900
C        3.21708100       4.41613400      -0.34964500
H        3.38729700       5.34096000      -0.89194300
C        3.75710200       2.84053300       1.39374700
C        4.08990500       3.96953900       0.61552900
H        5.00052300       4.51894500       0.83342400
C       -4.11871100      -0.19590100       0.81710800
C       -5.56221300       0.14813400      -1.65126600
H       -6.10112300       0.31887500      -2.57765600
C       -6.14838100      -0.47006400      -0.57346200
C       -5.43684800      -0.60321400       0.63826500
H        4.39352800       2.59987300       2.23751500
C       -3.49519100      -0.21161300       2.21163100
C       -3.28240300       1.24198100       2.69212900
H       -2.78540300       1.23471500       3.66869500
H       -2.66194000       1.81796800       1.99912900
H       -4.24946400       1.74877500       2.79737700
C       -4.30763000      -0.98896600       3.25653300
H       -5.27018800      -0.50739900       3.46760600
H       -4.49265000      -2.02029400       2.93609900
H       -3.73524100      -1.01498000       4.18959100
C        2.15584600       1.09823400       2.26049200
C        1.16811000       1.85621800       3.17949000
H        1.67554200       2.68511200       3.68731300
H        0.32485200       2.25838800       2.60723600
H        0.77619900       1.16725900       3.93675200
C        3.29548000       0.48418900       3.08713900
H        2.88700100      -0.30987800       3.71777900
H        4.06896700       0.04707700       2.44482900
H        3.76704800       1.22909300       3.73874100
H       -2.52202600      -0.69341400       2.14705300
H        1.59202800       0.28734300       1.80931200
H       -5.96397300      -1.02967200       1.48285600
H       -7.17251200      -0.82549900      -0.63016700
