81
Properties=species:S:1:pos:R:3 pbc="F F F"
Si      -0.09764300       0.62553500      -0.30504700
O        1.37052800       1.42289900      -0.21259100
C        1.76767900       2.78982400      -0.05441800
C        3.22353200       2.79082100       0.36966800
H        1.16364900       3.25717200       0.73127900
C        4.22593200       2.35272900      -0.50713100
C        3.57782800       3.20717300       1.65606000
C        5.56088100       2.33028200      -0.10071800
H        3.95860400       2.00873700      -1.50243200
C        4.91442300       3.18557200       2.06825400
H        2.80102100       3.54002000       2.34078400
C        5.90882400       2.74636600       1.19017500
H        6.32978100       1.98476900      -0.78708700
H        5.17637200       3.50683800       3.07306600
H        6.94804000       2.72617500       1.50794000
C        1.58400300       3.59239800      -1.37011100
C        0.19418100       3.86791700      -1.71630800
H        2.12164600       4.54261500      -1.25589300
H        2.06971100       3.04132300      -2.18388100
C       -0.95377400       4.12488900      -1.99650000
H       -1.97280600       4.32675900      -2.23912900
Cl       0.07573100       0.34439500      -2.43528000
Cl      -1.15108900       1.84819400       1.10672200
O        0.46080800      -0.78300800       0.63997300
O       -1.77826900      -0.27954300      -0.69349100
C       -0.76078100      -2.60720700      -0.11693200
C       -1.89011600      -2.09165800       0.69040800
C       -3.58459400      -0.38458600       0.87798700
C        1.60516000      -2.46074000      -0.57973500
C        1.40282900      -3.34760400      -1.69324600
C       -0.90673900      -3.67373900      -1.00933400
C        0.14123300      -3.96067800      -1.86325300
C       -2.34594300      -2.76168700       1.82585000
C       -3.29572700      -2.13438500       2.60548700
C       -3.90816200      -0.93816300       2.17250000
H       -1.86707400      -4.16886600      -1.08250400
H        0.00874900      -4.67296600      -2.67185300
H       -1.88515700      -3.70010800       2.10912000
H       -3.58881800      -2.55556800       3.56196900
N        0.43202200      -1.99512500       0.00196000
N       -2.43858900      -0.92336600       0.29746200
C       -4.40623800       0.63269700       0.28859700
C       -4.85524600      -0.27888100       2.99272800
H       -5.07967100      -0.69317500       3.97063500
C       -5.26744200       1.26026800       1.18637300
C       -5.46114100       0.86093600       2.52652700
H       -6.15686800       1.41487200       3.14897900
C        2.91307600      -2.12006800      -0.12100500
C        2.49148300      -3.60650000      -2.56007100
H        2.34363300      -4.26236600      -3.41209400
C        3.70865800      -3.02498900      -2.28931400
H        4.54896300      -3.16492700      -2.96199000
C        3.91436600      -2.35205700      -1.06349000
H        4.93252400      -2.07266900      -0.82173200
H       -5.88153400       2.07814000       0.83303200
C        3.29096500      -1.81105400       1.35781100
C        3.37161500      -0.31188500       1.69772300
H        4.08953600       0.19385300       1.04742400
H        2.41168800       0.18689400       1.59865200
H        3.71778200      -0.21204500       2.73355000
C        2.31826500      -2.52707800       2.32860000
H        2.22904600      -3.59192200       2.08115000
H        2.72825000      -2.44754400       3.34110600
H        1.32509400      -2.07645300       2.34811500
C        4.69525900      -2.41032500       1.64599500
H        4.75202400      -3.46657100       1.35910700
H        5.49098300      -1.85856100       1.13599100
H        4.88181900      -2.32913800       2.72190000
C       -4.55067400       0.94194000      -1.22791900
C       -5.97633600       1.48583500      -1.52142000
H       -6.75130700       0.82863300      -1.11139800
H       -6.12618300       2.49933800      -1.13505100
H       -6.09894300       1.53381400      -2.60832000
C       -3.56692300       2.02438200      -1.71677600
H       -3.68264000       2.93236900      -1.11488500
H       -2.53059300       1.70272300      -1.66894000
H       -3.80321000       2.26831800      -2.75978800
C       -4.42829500      -0.35484800      -2.06671500
H       -4.66404000      -0.11399200      -3.10934200
H       -3.42907100      -0.78642000      -2.04760600
H       -5.15384700      -1.10028900      -1.71892100
