81
Properties=species:S:1:pos:R:3 pbc="F F F"
Si      -0.20127500      -0.25820800       1.40128600
O        0.18286100       1.34044800       1.47326000
C       -0.19852700       2.54452800       0.76897400
C        0.82736000       2.90812600      -0.28082400
H       -1.17105700       2.41643400       0.29575400
C        2.17644400       3.07375600       0.06543800
C        0.42275000       3.16234200      -1.59546200
C        3.09783500       3.51438000      -0.88436500
H        2.50059300       2.86084500       1.08037900
C        1.34795800       3.59295800      -2.55243600
H       -0.62123500       3.03278000      -1.86722200
C        2.68529500       3.78035600      -2.19494700
H        4.13892100       3.64658900      -0.60499500
H        1.02185000       3.78837600      -3.57069100
H        3.40521000       4.12307100      -2.93345300
C       -0.29869200       3.67077500       1.82779800
C       -1.26599200       3.40446900       2.88935800
H       -0.56283800       4.59586700       1.29934600
H        0.69659000       3.82240000       2.26371800
C       -2.05720700       3.17332500       3.77377800
H       -2.76289900       2.96339500       4.54722600
Cl       0.98635200      -0.64323200       3.21525000
Cl      -1.88816400      -1.28964600       2.18850000
O       -1.20203500       0.12252800      -0.19278500
O        0.80869600      -1.41831700       0.50087700
C       -0.80332800      -1.57505700      -1.66579700
C        0.55983200      -1.01348700      -1.76976300
C        2.72683200      -0.73749000      -0.72842300
C       -3.05982600      -1.23481700      -0.87911800
C       -3.34788800      -2.57676000      -1.33240500
C       -1.13668800      -2.77079400      -2.30298700
C       -2.38281900      -3.30656200      -2.05873400
C        1.00276700      -0.42803900      -2.95739900
C        2.22440400       0.21200900      -2.95365800
C        3.09676700       0.09323300      -1.85131100
H       -0.38563900      -3.28288600      -2.89188700
H       -2.64175200      -4.29393600      -2.42768200
H        0.33576900      -0.40300400      -3.80989800
H        2.53789600       0.80327500      -3.80733300
N       -1.70515300      -0.89296000      -0.92997400
N        1.36971500      -1.06926400      -0.69340900
C        3.70716500      -1.15635600       0.22270700
C        4.35001500       0.74487800      -1.84985000
H        4.61425700       1.37200600      -2.69383000
C        4.87942400      -0.39308400       0.19859500
C        5.19170900       0.57084300      -0.77748900
H        6.13749600       1.10008800      -0.72050900
C       -4.11912900      -0.37888900      -0.42867200
C       -4.61347300      -3.14982800      -1.06151600
H       -4.80736100      -4.16541000      -1.39189600
C       -5.55473400      -2.40647200      -0.39510600
H       -6.51831700      -2.83226500      -0.13355200
C       -5.31134800      -1.04047500      -0.14112600
H       -6.13809500      -0.46828500       0.25857700
H        5.65227000      -0.62859400       0.92112300
C       -4.10833800       1.17135900      -0.38946000
C       -3.65817300       1.70498400       0.98446200
H       -4.37074300       1.39250700       1.75628600
H       -2.67664200       1.34664600       1.27778700
H       -3.63879100       2.79979400       0.95998700
C       -3.26713800       1.75377300      -1.55213300
H       -3.65504100       1.39450900      -2.51296000
H       -3.36351600       2.84523100      -1.53552300
H       -2.20891700       1.51354600      -1.48644200
C       -5.54188000       1.72524100      -0.62536600
H       -5.99009700       1.30607400      -1.53303600
H       -6.20888200       1.54053000       0.22234200
H       -5.46675800       2.81125500      -0.74407800
C        3.80702200      -2.50265600       1.00781800
C        4.93954900      -3.28774900       0.27428700
H        4.65902500      -3.48793600      -0.76675300
H        5.88808500      -2.74219400       0.28057800
H        5.08804300      -4.24484400       0.78688400
C        4.23182100      -2.28079300       2.47567200
H        5.19823100      -1.77358900       2.55825800
H        3.47864200      -1.69930600       3.01112500
H        4.32975500      -3.25930600       2.95987600
C        2.58282400      -3.43815400       1.00074200
H        2.92628900      -4.42662500       1.32595200
H        1.80903600      -3.10829700       1.69162700
H        2.15562000      -3.54984100      -0.00167000
