81
Properties=species:S:1:pos:R:3 pbc="F F F"
Si      -0.01224400      -0.58217200      -0.71909100
O       -1.40304300      -1.48655800      -0.52520400
C       -2.17674400      -2.01027500       0.54662100
C       -3.43311600      -2.64975300      -0.01943300
H       -2.47508200      -1.19209200       1.20982100
C       -3.47831300      -3.19266800      -1.30724400
C       -4.56806100      -2.72795100       0.79840700
C       -4.64842300      -3.80227200      -1.77265900
H       -2.60398400      -3.12451000      -1.94656300
C       -5.73602500      -3.33828100       0.33698200
H       -4.53804700      -2.29776700       1.79740700
C       -5.77916500      -3.87774000      -0.95372500
H       -4.67611700      -4.21647700      -2.77739600
H       -6.61221800      -3.38542000       0.97861900
H       -6.68840700      -4.34814300      -1.31887500
C       -1.39902800      -3.06085500       1.39253300
C       -0.45132200      -2.47362500       2.33340300
H       -2.13796800      -3.63891500       1.96114000
H       -0.89500100      -3.75228100       0.70820300
C        0.27784500      -1.98180300       3.16421300
H        0.92772300      -1.55956400       3.89620500
Cl      -0.36487300       0.18208600      -2.63980700
Cl       1.22260300      -2.36707300      -0.77183700
O       -0.71266300       0.60184000       0.48614000
O        1.59504200       0.42002200      -0.64567300
C        0.88898100       2.12334300       1.22669100
C        1.81383000       1.02326500       1.56067300
C        3.44329300      -0.47286900       0.58860100
C       -1.15284100       2.93832100       0.22465400
C       -0.48817600       4.21248500       0.06361400
C        1.40193300       3.42304700       1.34265100
C        0.75697100       4.44186400       0.68430200
C        2.30974300       0.81591400       2.84760600
C        3.22471100      -0.19977000       3.03486700
C        3.79100200      -0.87264100       1.93159600
H        2.36134800       3.56233600       1.82499700
H        1.20456500       5.42859000       0.61935900
H        1.91024700       1.39920700       3.66803000
H        3.53679100      -0.48307700       4.03536000
N       -0.31637500       1.89847700       0.66813400
N        2.30334100       0.32391300       0.51084500
C        4.24552100      -0.87352400      -0.52913200
C        4.72567400      -1.91845400       2.12131100
H        4.96354200      -2.23105700       3.13306800
C        5.10734500      -1.93418800      -0.25796000
C        5.30900000      -2.49715900       1.02136700
H        5.99744300      -3.32917500       1.13118800
C       -2.54984500       2.83011000      -0.07853600
C       -1.10078200       5.24036800      -0.68861400
H       -0.57671200       6.18356700      -0.80543400
C       -2.33327100       5.01254100      -1.24955300
H       -2.80584900       5.75513400      -1.88446300
C       -3.04268500       3.84897100      -0.89671200
H       -4.06701400       3.78152300      -1.24006300
H        5.71242300      -2.33160500      -1.06234700
C       -3.57431700       1.82755500       0.50790500
C       -3.82030400       0.67553200      -0.48452800
H       -4.26034000       1.07798800      -1.40462100
H       -2.90426600       0.15246600      -0.74512500
H       -4.52587700      -0.04198200      -0.05284100
C       -3.16740000       1.34532800       1.92151900
H       -3.06627500       2.20798500       2.59177800
H       -3.96817600       0.70852600       2.31253300
H       -2.24438400       0.77268400       1.94662100
C       -4.94202300       2.53903800       0.72701400
H       -4.82598700       3.45339400       1.31955000
H       -5.45111800       2.78164900      -0.21005000
H       -5.59308700       1.84920400       1.27452600
C        4.37482000      -0.12552900      -1.88569100
C        5.80709600      -0.32442700      -2.45450300
H        6.57522500      -0.07313200      -1.71443400
H        5.97476700      -1.34534000      -2.81172900
H        5.92082600       0.34162100      -3.31585800
C        3.40203600      -0.64807900      -2.96359100
H        3.54598400      -1.72431600      -3.10944700
H        2.36256400      -0.46515000      -2.70689200
H        3.62501700      -0.13773500      -3.90867400
C        4.22017000       1.40342600      -1.68876800
H        4.46422100       1.89810400      -2.63537100
H        3.20876600       1.70086600      -1.41640200
H        4.92223500       1.76345100      -0.92682700
