81
Properties=species:S:1:pos:R:3 pbc="F F F"
Si      -0.35576900      -0.18617600       1.18749100
O        1.18594300       0.40131100       1.20250700
C        1.81932200       1.61216600       1.66541100
C        2.17140000       2.45214600       0.44611800
H        1.11534900       2.17246800       2.28721500
C        1.12783000       2.84229000      -0.40891200
C        3.47443600       2.86216700       0.14353300
C        1.38131500       3.61290400      -1.54203500
H        0.11085700       2.53172600      -0.19190700
C        3.73138900       3.64341000      -0.98871000
H        4.30438300       2.57112200       0.77843100
C        2.68884700       4.01724700      -1.83744800
H        0.56025200       3.90043500      -2.19368200
H        4.75100200       3.94772400      -1.20920500
H        2.88943500       4.61962500      -2.71946800
C        3.02342900       1.20584600       2.53521000
C        2.62449100       0.47087200       3.73232100
H        3.55869200       2.11754400       2.82803000
H        3.71182600       0.59946800       1.93347900
C        2.27706500      -0.13344700       4.72005900
H        1.96800400      -0.67132400       5.58935100
Cl      -1.18595000      -1.87177400       2.16317700
Cl      -1.20122300       1.24470500       2.64232000
O       -1.42876200       0.50404700      -0.05931800
O        0.29333600      -1.47702500      -0.04756900
C       -1.36138100      -0.86661800      -1.93426500
C        0.06088200      -0.49643700      -2.09676800
C        2.29054400      -0.83051300      -1.22920800
C       -3.43522700      -0.57449000      -0.72400900
C       -3.89223300      -1.80671100      -1.32202000
C       -1.91949900      -1.87208100      -2.73209000
C       -3.13535200      -2.40114600      -2.35584500
C        0.51718700       0.24993700      -3.18126700
C        1.84452500       0.62248800      -3.18897900
C        2.74068400       0.11766800      -2.22353600
H       -1.32511600      -2.29255300      -3.53367400
H       -3.52428300      -3.28817900      -2.84626600
H       -0.19015200       0.58774600      -3.92839600
H        2.22089300       1.30705100      -3.94186400
N       -2.08382200      -0.29880400      -0.95050800
N        0.90381600      -0.94814100      -1.14402400
C        3.23809200      -1.55998500      -0.43635500
C        4.09431700       0.52663200      -2.23967900
H        4.40961600       1.25347000      -2.98017600
C        4.53320400      -1.04396400      -0.47395600
C        4.96081900       0.00256600      -1.31572900
H        5.99372600       0.33291400      -1.26999000
C       -4.32470600       0.23533900       0.04401000
C       -5.10455500      -2.38334400      -0.88027700
H       -5.43596200      -3.31511700      -1.32726200
C       -5.82649200      -1.74487900       0.10177100
H       -6.73223400      -2.18811300       0.50317200
C       -5.45815500      -0.44548700       0.49916000
H       -6.15434000       0.09388500       1.13088300
H        5.29355600      -1.50574400       0.14180300
C       -4.37620400       1.78855100       0.16545100
C       -4.61891400       2.23689200       1.62216400
H       -5.56319100       1.85313500       2.02141300
H       -3.80092100       1.90924800       2.26700900
H       -4.66965000       3.33154500       1.64734800
C       -3.18867800       2.59297600      -0.39856700
H       -2.87406900       2.22875400      -1.38247900
H       -3.52166300       3.62967700      -0.51997400
H       -2.33659000       2.59271200       0.27869200
C       -5.61344100       2.19501400      -0.69490200
H       -5.47081300       1.90160900      -1.74190300
H       -6.53491600       1.73438800      -0.32598000
H       -5.72826900       3.28373000      -0.64779600
C        3.00918100      -2.92079300       0.27720300
C        4.34544800      -3.70991000       0.36343300
H        4.83506100      -3.78529200      -0.61398500
H        5.04543900      -3.27139400       1.08215000
H        4.11410700      -4.71998000       0.71651600
C        2.51473500      -2.75752000       1.72954400
H        3.21896800      -2.14605700       2.30336000
H        1.53326800      -2.29913800       1.78568500
H        2.46143000      -3.74953600       2.19491700
C        2.06235400      -3.82245500      -0.55401300
H        2.01924400      -4.80804200      -0.07713000
H        1.04492100      -3.44088700      -0.61324200
H        2.46079600      -3.95401200      -1.56756200
