81
Properties=species:S:1:pos:R:3 pbc="F F F"
Si       0.04234700       0.48756800      -0.72884500
O       -0.17922100       1.41317600       0.61479100
C       -1.03854600       2.53540700       0.88793100
C       -0.59534600       3.80795300       0.19704000
H       -2.06034000       2.28948700       0.58213800
C        0.76025200       4.12411000       0.05441700
C       -1.56307100       4.71707700      -0.24535300
C        1.14306600       5.33086100      -0.53738300
H        1.51413300       3.42215800       0.39374000
C       -1.18307000       5.92793500      -0.82933300
H       -2.61686800       4.46713900      -0.14343700
C        0.17324800       6.23685400      -0.97905000
H        2.19868400       5.56354800      -0.65246800
H       -1.94283000       6.62369300      -1.17596600
H        0.47169100       7.17440500      -1.44078100
C       -0.99833500       2.74174400       2.42262200
C       -1.48215700       1.59843100       3.19251700
H       -1.60227000       3.62816200       2.65285800
H        0.03690400       2.97368500       2.70400500
C       -1.88333800       0.65522000       3.83473300
H       -2.23961800      -0.17096300       4.40802900
Cl       1.67954000       0.69029500      -2.06742400
Cl      -1.31571200       1.53975000      -2.10941600
O        1.15404800      -0.49894700       0.48685400
O       -0.92622700      -0.98488500      -1.02811600
C        1.01224100      -2.69282000      -0.15104400
C       -0.32594700      -2.65508800       0.47378500
C       -2.57168200      -1.75924500       0.49950200
C        3.14447900      -1.56965800      -0.27961600
C        3.57273900      -2.61916800      -1.17415300
C        1.48913800      -3.81290300      -0.83258800
C        2.73588600      -3.72988800      -1.41714100
C       -0.56228900      -3.39536100       1.63874800
C       -1.70320000      -3.12625200       2.36197000
C       -2.70302700      -2.27724900       1.84046300
H        0.84506400      -4.67555300      -0.95146700
H        3.09669200      -4.52432500      -2.06285400
H        0.21205100      -4.06010300       2.00106900
H       -1.84659100      -3.56046600       3.34654500
N        1.78504400      -1.59976500       0.02577000
N       -1.27442200      -1.83757200      -0.01878200
C       -3.70416400      -1.21198500      -0.17930100
C       -3.84553400      -1.94747100       2.60344600
H       -3.93159700      -2.33782000       3.61233700
C       -4.74562400      -0.83419500       0.67418100
C       -4.80837600      -1.13850900       2.04701400
H       -5.66756600      -0.81585900       2.62625200
C        4.07712300      -0.60032100       0.21947000
C        4.84320100      -2.52836600      -1.79227000
H        5.14786800      -3.31153400      -2.47925600
C        5.65012700      -1.45656700      -1.50295700
H        6.61143400      -1.33653100      -1.99265400
C        5.28080000      -0.55590400      -0.48040300
H        6.01962000       0.18158300      -0.19610600
H       -5.61780000      -0.36560400       0.23331600
C        3.94463800       0.22345100       1.53194600
C        3.24125700       1.58230500       1.32734600
H        3.74048300       2.15088800       0.53445000
H        2.19055100       1.46643600       1.07933600
H        3.31341400       2.15766800       2.25842400
C        3.24047900      -0.61112300       2.63108500
H        3.76633900      -1.56191800       2.78125100
H        3.28220900      -0.04905600       3.57080900
H        2.19165200      -0.80789800       2.41389700
C        5.35561300       0.54476600       2.09774900
H        5.97464000      -0.35561000       2.18097100
H        5.88668000       1.28907900       1.49517400
H        5.22663300       0.97132100       3.09762700
C       -4.07726700      -1.30690800      -1.69120400
C       -5.20520900      -2.38568000      -1.73287400
H       -4.83303800      -3.35156000      -1.37153400
H       -6.06887800      -2.09554500      -1.12668400
H       -5.53458200      -2.50365300      -2.77152400
C       -4.65415400       0.02055900      -2.22881100
H       -5.56169000       0.32293200      -1.69674900
H       -3.91643700       0.82230600      -2.16064300
H       -4.92221100      -0.12018800      -3.28223200
C       -2.99249500      -1.80051100      -2.66719500
H       -3.49598800      -2.08844600      -3.59688900
H       -2.26648000      -1.02546200      -2.90417500
H       -2.47176300      -2.68550300      -2.28555600
