81
Properties=species:S:1:pos:R:3 pbc="F F F"
Si      -0.20556800       0.61683500       0.09248800
O        0.58437000       2.03214000       0.43762800
C        1.42586700       2.95693000      -0.30361900
C        2.88594800       2.73611100       0.03600600
H        1.28436100       2.79689100      -1.37305000
C        3.43969200       3.19002500       1.24163400
C        3.71018600       2.07646500      -0.88445100
C        4.79587800       3.00071700       1.51398200
H        2.81333000       3.69078500       1.97406000
C        5.06658400       1.87811800      -0.61137500
H        3.28068400       1.71488300      -1.81438700
C        5.61403200       2.34523900       0.58711100
H        5.21350000       3.35893000       2.45117100
H        5.69389200       1.36294500      -1.33407900
H        6.66922600       2.19634000       0.80061400
C        0.95142600       4.38409200       0.04844100
C       -0.37401300       4.69863300      -0.47772400
H        1.68602100       5.08862500      -0.36209100
H        0.95845800       4.50827300       1.13765200
C       -1.46211100       4.96514100      -0.93294000
H       -2.42700200       5.19059100      -1.32917500
Cl       0.55299700       0.48067100      -2.01208700
Cl      -1.30987700       0.90149300       1.99512100
O        0.52799000      -0.86349700       0.74453600
O       -1.66572900      -0.13690100      -0.70857000
C       -0.47280900      -2.52607200      -0.51943700
C       -1.74550500      -2.24741300       0.19713100
C       -3.64008400      -0.76365300       0.48474800
C        1.92699100      -2.21199100      -0.61281200
C        1.92203700      -2.92520800      -1.86478000
C       -0.44136700      -3.41467900      -1.59597100
C        0.73231500      -3.53470100      -2.31457200
C       -2.28703600      -3.19878700       1.06097000
C       -3.41347100      -2.85826500       1.78207500
C       -4.09183900      -1.64778000       1.53434700
H       -1.35734000      -3.90860100      -1.89542700
H        0.75188700      -4.10420600      -3.23854400
H       -1.76913100      -4.13962900       1.20213600
H       -3.79394100      -3.52287400       2.55136700
N        0.66384300      -1.91944200      -0.11676400
N       -2.37698000      -1.06997800      -0.01036600
C       -4.45480300       0.33090500       0.04169300
C       -5.21868300      -1.28944700       2.31178400
H       -5.54087300      -1.95666400       3.10477700
C       -5.50438600       0.64310600       0.90431600
C       -5.86425600      -0.10932400       2.04310300
H       -6.70189100       0.21785800       2.65087400
C        3.14878800      -1.83635900       0.02886100
C        3.11877000      -3.00062400      -2.61657200
H        3.11236700      -3.52908400      -3.56450300
C        4.25151700      -2.39919400      -2.12402600
H        5.17131600      -2.39474800      -2.70032800
C        4.26086600      -1.87977800      -0.81053000
H        5.21736600      -1.55564300      -0.42202100
H       -6.13381200       1.49145600       0.67061900
C        3.35009400      -1.62245000       1.55685400
C        3.19265600      -0.15516700       2.00549700
H        3.85360800       0.48596500       1.42059700
H        2.17498300       0.21514400       1.91176300
H        3.48714600      -0.08165900       3.05950100
C        2.41913400      -2.56275500       2.36262200
H        2.55609700      -3.60354800       2.04464500
H        2.69361800      -2.49197400       3.42073400
H        1.36440400      -2.29990800       2.28367700
C        4.79748100      -2.03662300       1.94270200
H        5.04318000      -3.03887300       1.57428800
H        5.54319600      -1.32550300       1.57256700
H        4.86607900      -2.03838100       3.03532300
C       -4.38469100       1.05052400      -1.33529000
C       -5.78400300       1.61637300      -1.70805900
H       -6.56357700       0.85056700      -1.62977000
H       -6.06473400       2.47751300      -1.09289200
H       -5.73962900       1.96211200      -2.74568500
C       -3.42948100       2.26392500      -1.33246100
H       -3.70535000       2.95520700      -0.52947300
H       -2.38442100       1.99237100      -1.20791100
H       -3.52733400       2.79012700      -2.28924700
C       -4.04579600       0.04430800      -2.46477500
H       -4.11439700       0.56925300      -3.42405700
H       -3.04411800      -0.37558000      -2.39308700
H       -4.77892800      -0.77149800      -2.47277100
