61
Properties=species:S:1:pos:R:3 pbc="F F F"
Si       0.04597400      -0.37757900       1.12463900
O       -0.14492100      -1.68313900       0.13234800
C        0.48164200      -2.22310300      -1.03795600
C        1.68970800      -3.07415500      -0.68530300
H        0.80116600      -1.41629400      -1.70470400
C        2.00294400      -3.43158800       0.62902000
C        2.52235100      -3.50367900      -1.72979300
C        3.15121000      -4.18518200       0.89892100
H        1.35999400      -3.11407500       1.44332900
C        3.66370900      -4.26043100      -1.46304600
H        2.29050500      -3.22053800      -2.75416400
C        3.98694600      -4.59705600      -0.14225200
H        3.39183000      -4.44611900       1.92602600
H        4.30715000      -4.57534800      -2.28020400
H        4.88167500      -5.17594300       0.06990500
C       -0.58169300      -3.08899100      -1.76424400
C       -1.58790500      -2.32476000      -2.49628000
H       -0.05835100      -3.74142800      -2.47307500
H       -1.05364400      -3.73899100      -1.01685100
C       -2.39555600      -1.72051500      -3.16383500
H       -3.11275300      -1.20572300      -3.76230700
Cl       1.59248500       0.45498900       2.31945400
Cl      -0.73510700      -1.54365300       2.81189000
O        0.75848100       0.53551400      -0.40936600
O       -1.30091800       0.79974100       1.19900900
C       -0.26608800       2.57464000      -0.62170500
C       -1.52337100       1.84458600      -0.87177200
C       -3.30679300       0.47105300      -0.01584700
C        2.12050200       2.48432100      -0.33440800
C        2.13346600       3.92395200      -0.32381600
C       -0.25968700       3.97367300      -0.66310700
C        0.92812000       4.64225800      -0.47871900
C       -2.21308500       2.04466600      -2.07426100
C       -3.38089200       1.35302800      -2.30724800
C       -3.95501000       0.55798600      -1.29337700
H       -1.19724900       4.49466300      -0.81375100
H        0.95636700       5.72694500      -0.46675000
H       -1.77579800       2.69994200      -2.81716500
H       -3.88399400       1.42972700      -3.26553700
N        0.87349000       1.87328700      -0.42764200
N       -2.03832400       1.02908400       0.07488300
C       -3.99596100      -0.10700600       1.09568400
C       -5.18240200      -0.11769700      -1.49807200
H       -5.64868100      -0.05890900      -2.47612000
C       -5.19742200      -0.77278300       0.82167500
C       -5.76721200      -0.81422000      -0.46347400
H       -6.69951100      -1.34822500      -0.61503300
C        3.35520600       1.76203600      -0.28341500
C        3.36120200       4.61643300      -0.18753500
H        3.34168300       5.70140600      -0.17197000
C        4.54259200       3.91623000      -0.09540000
H        5.48849700       4.43787200       0.00845400
C        4.53179200       2.51262600      -0.15828200
H        5.47031400       1.97017000      -0.11624000
H       -5.72487000      -1.22505400       1.65502500
C       -3.64915500       0.09615000       2.45847400
C        3.51828200       0.35207200      -0.37488900
C        3.87963900      -0.80267500      -0.43147200
H        4.13796000      -1.83865800      -0.46895500
C       -3.52212100       0.30439000       3.64410400
H       -3.34838200       0.46691900       4.68548600
