61
Properties=species:S:1:pos:R:3 pbc="F F F"
Si      -0.38284800       0.77967200       1.30502300
O        0.34742300       1.94622800       0.39774500
C        0.32510300       2.31401000      -1.00036000
C        1.40896700       1.59288800      -1.77022500
H       -0.64991500       2.08446400      -1.43151000
C        2.74776100       1.66534000      -1.35537000
C        1.09415400       0.90891900      -2.94905100
C        3.75650400       1.08952100      -2.12757300
H        2.99547900       2.17848300      -0.43030800
C        2.10394100       0.32062500      -3.71871000
H        0.05579800       0.84365500      -3.26520000
C        3.43776000       0.42002500      -3.31446400
H        4.79014700       1.15729400      -1.80193300
H        1.84870200      -0.20833700      -4.63319700
H        4.22465200      -0.02969700      -3.91413300
C        0.55948700       3.84377600      -1.06249600
C       -0.47078100       4.63028300      -0.38859500
H        0.61275200       4.12766100      -2.12132400
H        1.53994500       4.06157900      -0.62102000
C       -1.32358900       5.28046800       0.17105400
H       -2.07530300       5.85090600       0.67142700
Cl       0.51279200       1.60864300       3.11635200
Cl      -2.31480800       0.70065700       2.19480100
O       -1.12360100       0.09145800      -0.33386400
O        0.41232700      -0.81199200       1.57711400
C       -1.09076900      -2.19566700      -0.27670000
C        0.37485700      -2.08018300      -0.38470000
C        2.47548100      -1.39814500       0.56686600
C       -3.19956500      -1.05661700      -0.46023500
C       -3.85513600      -2.33269500      -0.36467500
C       -1.71161300      -3.44863700      -0.23607400
C       -3.08682000      -3.51105300      -0.23690900
C        1.02126600      -2.64669700      -1.48946100
C        2.37783500      -2.46735100      -1.64417400
C        3.13439800      -1.85676900      -0.62338500
H       -1.09282100      -4.33594700      -0.18281500
H       -3.59646200      -4.46612300      -0.16288400
H        0.42094600      -3.15367900      -2.23471600
H        2.88201600      -2.81923200      -2.53761400
N       -1.81594100      -1.05784900      -0.33299700
N        1.08604000      -1.42546000       0.55940000
C        3.25191800      -1.01273600       1.70449500
C        4.54040100      -1.73391400      -0.73403000
H        5.01623700      -2.06373900      -1.65131600
C        4.63573900      -0.89375700       1.52136900
C        5.27283800      -1.21635900       0.31059500
H        6.34900300      -1.10491800       0.22848800
C       -3.96554400       0.12576900      -0.70868400
C       -5.26876600      -2.39894600      -0.43143500
H       -5.74463500      -3.37050000      -0.34422000
C       -6.00624900      -1.25190800      -0.62150000
H       -7.08923000      -1.29462800      -0.67524400
C       -5.35665100      -0.01432600      -0.77533100
H       -5.94470400       0.87792100      -0.96268400
H        5.23249300      -0.59245500       2.37592500
C        2.75596400      -0.92155000       3.03241600
C       -3.43792600       1.42791300      -0.93153000
C       -3.16067100       2.58423500      -1.16303900
H       -2.83774600       3.59374900      -1.30236000
C        2.47632300      -0.93705800       4.21005500
H        2.17720600      -0.90875900       5.23507200
