61
Properties=species:S:1:pos:R:3 pbc="F F F"
Si      -0.25027800      -1.15699300      -0.73092000
O        1.33497400      -1.24635400      -0.32084600
C        2.22311200      -1.55943400       0.77338500
C        1.92432700      -0.69562000       1.98060400
H        3.20690400      -1.27921600       0.38284400
C        0.74350100      -0.85438800       2.72016400
C        2.83536000       0.29903300       2.35527100
C        0.47078500      -0.01401700       3.80062400
H        0.02807400      -1.62044700       2.43973000
C        2.56782200       1.13862000       3.44028600
H        3.75530400       0.41824400       1.78891300
C        1.38072500       0.98655500       4.16230100
H       -0.45212100      -0.13955700       4.36073200
H        3.28233400       1.90915400       3.71784700
H        1.16662900       1.64003300       5.00399900
C        2.28373700      -3.06364900       1.12346400
C        2.61496800      -3.90181100      -0.02504200
H        3.05880600      -3.16637700       1.89464700
H        1.33808600      -3.38537500       1.56823900
C        2.89496700      -4.57461500      -0.99038900
H        3.13470900      -5.17607400      -1.83972700
Cl      -1.11166400      -1.67036300      -2.60200700
Cl      -0.93725200      -3.01864600       0.19961500
O       -1.24296300      -0.19478200       0.42834800
O        0.14881600       0.45941500      -1.66597100
C       -1.46940700       2.00826200      -0.31995100
C       -0.01311800       2.19613200      -0.18545200
C        2.15560600       1.55095600      -0.99529500
C       -3.41343600       0.62795700       0.00397900
C       -4.20265000       1.61869800      -0.67110800
C       -2.25800400       3.04940000      -0.82838500
C       -3.59524300       2.82820500      -1.07336600
C        0.52493500       3.21083400       0.61311800
C        1.89260800       3.36104400       0.65916900
C        2.73093900       2.55035000      -0.13829400
H       -1.77279300       3.98159600      -1.08985200
H       -4.19937800       3.58734900      -1.55963300
H       -0.14513900       3.82878300       1.19815700
H        2.34428800       4.10821000       1.30309800
N       -2.03860400       0.82970900       0.01830500
N        0.78037000       1.40014100      -0.93107900
C        2.98889500       0.78592500      -1.87263800
C        4.13697900       2.71532300      -0.10586600
H        4.55457400       3.46453700       0.55896900
C        4.36941400       0.99725500      -1.78416700
C        4.94184300       1.93484400      -0.90524600
H        6.02067300       2.04922900      -0.87967200
C       -4.05294900      -0.46672400       0.66468700
C       -5.58610100       1.38633500      -0.86920700
H       -6.16570100       2.13367600      -1.40137000
C       -6.17181000       0.24313000      -0.36974100
H       -7.22799700       0.05113000      -0.52781300
C       -5.42032400      -0.64545400       0.42023900
H       -5.91637700      -1.47824600       0.90758600
H        5.01194400       0.41594900      -2.43694400
C        2.53183400      -0.13457400      -2.85643000
C       -3.44654100      -1.26472700       1.67199900
C       -3.06677700      -1.91069200       2.62261900
H       -2.68204700      -2.49932200       3.42647600
C        2.29200000      -0.91549900      -3.74993300
H        2.02770400      -1.61333400      -4.51390600
