61
Properties=species:S:1:pos:R:3 pbc="F F F"
Si       0.01737800      -0.73939300      -0.41525700
O        1.45918600      -0.16441500       0.14006000
C        2.53136300      -0.60567700       0.99689600
C        3.25758400      -1.81750400       0.43019900
H        3.22710000       0.24251300       0.96310900
C        3.67034700      -2.89822800       1.21856700
C        3.56712500      -1.82119400      -0.93858400
C        4.36890700      -3.96779600       0.64801100
H        3.44181000      -2.92902400       2.27887500
C        4.25833500      -2.88972400      -1.51016700
H        3.24857400      -0.98773400      -1.55745400
C        4.66310700      -3.96974900      -0.71744800
H        4.67511800      -4.80233000       1.27351200
H        4.48264400      -2.87918200      -2.57390600
H        5.20119000      -4.80372700      -1.16042300
C        2.06726500      -0.74853900       2.46204300
C        1.40266100       0.44876200       2.96963000
H        2.95651200      -0.94800300       3.07279800
H        1.40338200      -1.61423400       2.55683600
C        0.85444900       1.43517100       3.40433900
H        0.36697300       2.29906200       3.79774800
Cl      -0.46016200      -1.43902000      -2.36080100
Cl       0.11363000      -2.75294800       0.42111300
O       -1.36302500      -0.33691500       0.67961000
O       -0.20532500       0.95805300      -1.24751100
C       -2.38986600       1.65382500      -0.00041800
C       -1.14111700       2.38829500       0.27379600
C        1.15176400       2.70445500      -0.36984800
C       -3.64089700      -0.40098300       0.05100900
C       -4.70197900       0.25541100      -0.66015000
C       -3.48421300       2.34162500      -0.54275000
C       -4.59825300       1.63557100      -0.93783000
C       -1.10001700       3.47531500       1.15369300
C        0.09576700       4.13332100       1.33665100
C        1.23981300       3.76638700       0.59267000
H       -3.39013900       3.40731500      -0.71142300
H       -5.41414500       2.13445900      -1.45079900
H       -1.99742600       3.74397800       1.69763700
H        0.17312100       4.94602800       2.05166200
N       -2.46698300       0.32334900       0.22786600
N       -0.05109100       2.02246300      -0.42957900
C        2.26182200       2.40936400      -1.22281000
C        2.47119100       4.44444900       0.76910700
H        2.52596400       5.23406100       1.51164200
C        3.44769400       3.11435100      -0.99243900
C        3.56304100       4.10329900       0.00231700
H        4.51189600       4.61222100       0.13763400
C       -3.84467800      -1.71351200       0.57998700
C       -5.85768000      -0.48008900      -1.02066200
H       -6.64036000       0.02590800      -1.57660500
C       -5.97981500      -1.80037100      -0.64535500
H       -6.85564900      -2.37534700      -0.92785100
C       -5.00321100      -2.39009000       0.17670600
H       -5.16290700      -3.39129800       0.56302700
H        4.29982400       2.89222500      -1.62624700
C        2.23713300       1.50896100      -2.32424400
C       -3.05633700      -2.30584700       1.60273600
C       -2.53565500      -2.85170700       2.54936800
H       -2.01851100      -3.32448100       3.35548900
C        2.34399500       0.82163600      -3.31540700
H        2.39474400       0.18296300      -4.16991200
