61
Properties=species:S:1:pos:R:3 pbc="F F F"
Si      -0.19770300      -0.92029500      -0.34959200
O        1.29474900      -0.49139300       0.21354300
C        2.18388900      -1.05769200       1.20245300
C        3.30399400      -1.82147200       0.53399300
H        1.62861900      -1.73030000       1.85947100
C        4.16658700      -1.18896500      -0.37175300
C        3.49710500      -3.17575500       0.83023600
C        5.20364000      -1.90131600      -0.97583000
H        4.01671700      -0.14264700      -0.61512700
C        4.53830700      -3.89153300       0.23059400
H        2.82256300      -3.66981200       1.52484700
C        5.39281600      -3.25552900      -0.67476500
H        5.86309500      -1.40264900      -1.68159200
H        4.67721900      -4.94366500       0.46528000
H        6.19977400      -3.81103200      -1.14554500
C        2.71740500       0.12442600       2.04494700
C        1.66110200       0.79072700       2.80229500
H        3.47828400      -0.26737600       2.73154300
H        3.22020800       0.83678200       1.37955300
C        0.76269500       1.30719100       3.42573100
H       -0.02405000       1.76795900       3.98102300
Cl      -0.76412600      -1.61612700      -2.27125100
Cl      -0.27622700      -2.92377200       0.52972700
O       -1.54165000      -0.36793400       0.72273500
O       -0.23948300       0.76693700      -1.22105600
C       -2.34377500       1.71015300       0.00547000
C       -1.02551700       2.31524400       0.27208900
C        1.27477200       2.41152500      -0.41362600
C       -3.80267000      -0.20250200       0.04488000
C       -4.77890600       0.55821600      -0.68469700
C       -3.35063300       2.50485200      -0.55981600
C       -4.52748400       1.91806700      -0.96686600
C       -0.87250800       3.41433500       1.12460300
C        0.37812700       3.97119300       1.26943900
C        1.46943100       3.49378100       0.50908900
H       -3.13905600       3.55182300      -0.73884600
H       -5.27797100       2.49665400      -1.49587500
H       -1.73199100       3.77575400       1.67594300
H        0.53968600       4.79039900       1.96233900
N       -2.56388200       0.39770700       0.24275900
N        0.01800600       1.83269000      -0.43176300
C        2.33671100       1.99834400      -1.27939700
C        2.75333900       4.07866500       0.63257500
H        2.88977200       4.88256800       1.34867800
C        3.57654400       2.62448900      -1.10913800
C        3.79346600       3.63410600      -0.15356600
H        4.78083800       4.07461600      -0.06106800
C       -4.14848500      -1.48863500       0.56519500
C       -5.99831100      -0.05452100      -1.06420100
H       -6.71511300       0.52937400      -1.63235300
C       -6.26161600      -1.35529300      -0.69399900
H       -7.18704300      -1.83709700      -0.99197600
C       -5.36323100      -2.04276400       0.14087000
H       -5.62935000      -3.02376900       0.52029700
H        4.39175800       2.31677000      -1.75548000
C        2.22433800       1.03960800      -2.32373200
C       -3.43960100      -2.16442200       1.59410300
C       -2.99179900      -2.77036200       2.54142300
H       -2.53749600      -3.30095400       3.34940400
C        2.27451600       0.26545700      -3.25298800
H        2.27408600      -0.44233900      -4.05274300
