61
Properties=species:S:1:pos:R:3 pbc="F F F"
Si      -0.42125000       0.78833600       0.92179200
O        0.23147900       1.70594200      -0.28035000
C        1.36433500       2.59070400      -0.31694600
C        2.61195200       1.85033500      -0.74594700
H        1.52589000       3.03900700       0.66592000
C        2.58001500       0.94038700      -1.81260800
C        3.83052500       2.13097400      -0.11890800
C        3.75731200       0.33596200      -2.25579900
H        1.63135000       0.70865600      -2.28879400
C        5.01058700       1.52603200      -0.56232100
H        3.85279200       2.82540400       0.71761600
C        4.97602700       0.63302800      -1.63638100
H        3.72571200      -0.36994600      -3.08113600
H        5.95210200       1.74794500      -0.06694700
H        5.89106800       0.15845400      -1.98006500
C        1.03218000       3.71986500      -1.32421600
C       -0.02028500       4.61634800      -0.85289000
H        1.95149500       4.29293900      -1.49855500
H        0.75004200       3.25966000      -2.27978800
C       -0.88107700       5.35628500      -0.43469800
H       -1.64636800       6.00464100      -0.06765700
Cl       0.66780900       1.63392500       2.63081000
Cl      -2.28306100       1.12107600       1.90664000
O       -1.33815900       0.01860000      -0.56929000
O        0.24086800      -0.83986100       1.33255200
C       -1.76106100      -2.18262200      -0.08768300
C       -0.32219100      -2.40676100      -0.31785000
C        1.98758000      -1.98839500       0.21507000
C       -3.60198200      -0.67688300      -0.43869700
C       -4.49902000      -1.74791300      -0.10087800
C       -2.62223100      -3.24596100       0.20905000
C       -3.97927700      -3.01669200       0.24168000
C        0.04204100      -3.30581600      -1.33003300
C        1.36858500      -3.45454900      -1.66235200
C        2.36573300      -2.80747800      -0.90569100
H       -2.19646100      -4.21987100       0.41726600
H       -4.66687400      -3.81428100       0.50414600
H       -0.74428500      -3.81439400      -1.87358100
H        1.66125000      -4.08359300      -2.49672000
N       -2.24414600      -0.94721600      -0.33840500
N        0.62609300      -1.74097600       0.37892800
C        2.99488100      -1.53420500       1.12262000
C        3.73566800      -3.00410600      -1.20410200
H        3.99377900      -3.61358300      -2.06403400
C        4.33051000      -1.74122300       0.75456800
C        4.70278000      -2.43998800      -0.40507400
H        5.75511400      -2.56728700      -0.63539300
C       -4.11767100       0.58351600      -0.87994300
C       -5.89720100      -1.52437300      -0.13821700
H       -6.55941800      -2.34019500       0.13294700
C       -6.39052800      -0.29889700      -0.52776300
H       -7.46058400      -0.12126600      -0.56142800
C       -5.50925200       0.72940100      -0.90695800
H       -5.91039500       1.68002100      -1.24236300
H        5.09837800      -1.38193000       1.43087500
C        2.76132500      -1.04776500       2.43589100
C       -3.33522900       1.68712600      -1.31866300
C       -2.79846700       2.69401200      -1.72445600
H       -2.25540100       3.56916500      -2.01008100
C        2.72190500      -0.74672900       3.60765500
H        2.62967100      -0.43306700       4.62431500
