61
Properties=species:S:1:pos:R:3 pbc="F F F"
Si       0.01062400      -0.54108100       0.26567500
O        1.49994200      -1.17781500      -0.14144400
C        2.39869000      -2.08079100       0.50676000
C        3.70902500      -2.03528500      -0.25476700
H        2.56722700      -1.74910200       1.53784900
C        3.76331000      -2.43101000      -1.59891000
C        4.87397500      -1.58341800       0.37186200
C        4.96356000      -2.36035100      -2.30837500
H        2.85767700      -2.76848300      -2.09527400
C        6.07982900      -1.51426900      -0.33398500
H        4.83206500      -1.27021900       1.41244000
C        6.12605000      -1.89848000      -1.67698200
H        4.99400100      -2.66063300      -3.35253500
H        6.97748700      -1.15359800       0.16136100
H        7.05972400      -1.83951200      -2.23001300
C        1.85448600      -3.53718300       0.53189200
C        0.77617800      -3.76732100       1.48697600
H        2.69542000      -4.19877400       0.77675600
H        1.52172000      -3.79513600      -0.48037000
C       -0.09980600      -3.97529300       2.29455800
H       -0.88752800      -4.14877300       2.99277300
Cl       0.43329900      -0.16240700       2.32733200
Cl      -1.04040100      -2.01089000      -0.91769100
O        0.26462000       0.88162000      -0.79312700
O       -1.69062500       0.19254000       0.80236800
C       -1.38522700       2.49279100      -0.47361100
C       -2.41791700       1.53753700      -0.91710200
C       -3.70816500      -0.39484400      -0.30020100
C        0.91008700       2.99703800       0.05651900
C        0.47386000       4.25234100       0.60769900
C       -1.79571900       3.77098100      -0.06997700
C       -0.88480300       4.62006900       0.51421100
C       -3.27523300       1.82852400      -1.98435100
C       -4.30721800       0.96105800      -2.26802100
C       -4.55829800      -0.15045800      -1.43205900
H       -2.84369400       4.02842400      -0.15984700
H       -1.19971100       5.58086500       0.90846300
H       -3.09020500       2.71668300      -2.57629100
H       -4.95519900       1.13461100      -3.12134100
N       -0.08658500       2.13131800      -0.38492400
N       -2.60832400       0.43609500      -0.15764800
C       -4.02223500      -1.43858000       0.62699300
C       -5.65135900      -1.01681700      -1.68039400
H       -6.27382500      -0.82797200      -2.54901100
C       -5.12042500      -2.25074700       0.32497400
C       -5.91341100      -2.06133200      -0.82183600
H       -6.74776900      -2.73010300      -1.00698900
C        2.30896300       2.71557000      -0.04198900
C        1.41670800       5.12502100       1.20232400
H        1.06040600       6.05883500       1.62503800
C        2.75210800       4.78776100       1.22089800
H        3.48169800       5.44310100       1.68535800
C        3.18620100       3.61532800       0.58074400
H        4.24801900       3.40002100       0.52356400
H       -5.36788700      -3.04584400       1.02044600
C       -3.35115100      -1.66736000       1.86057900
C        2.89607500       1.67434500      -0.80744200
C        3.55693500       0.90677100      -1.47051900
H        4.09191800       0.16686900      -2.02593500
C       -2.90576900      -1.92800100       2.95588300
H       -2.47250400      -2.12431200       3.91175100
