59
Properties=species:S:1:pos:R:3 pbc="F F F"
Si      -0.11719300      -0.73817500       0.17641600
O        1.35671800      -1.35969500      -0.29465800
C        2.36103900      -2.12317200       0.40170000
C        3.70846400      -1.79021600      -0.20345700
H        2.37507300      -1.82479000       1.45396500
C        4.09713600      -2.28266000      -1.45575000
C        4.57860800      -0.94553500       0.49621000
C        5.33612500      -1.93684600      -1.99814200
H        3.42430000      -2.92545700      -2.01612000
C        5.81870600      -0.59303500      -0.04475900
H        4.27976900      -0.56166800       1.46917000
C        6.19985200      -1.08935900      -1.29485200
H        5.62614100      -2.32265900      -2.97190600
H        6.48588300       0.06246800       0.50942500
H        7.16375100      -0.81967800      -1.71857100
C        2.02796500      -3.63387000       0.33357100
C        0.83876100      -3.96334500       1.11380300
H        2.89455700      -4.19007400       0.71323800
H        1.88626200      -3.92350800      -0.71462400
C       -0.15286900      -4.16084500       1.77734000
H       -1.04770000      -4.30261100       2.34303000
Cl       0.32195800      -0.44595100       2.24046800
Cl      -1.31382500      -2.03847400      -0.99248900
O        0.01046200       0.71969300      -0.86519700
O       -1.84449200       0.09103000       0.87567200
C       -1.17542500       2.51272000       0.01714900
C       -2.41522800       1.86958100      -0.46633300
C       -3.91637100       0.01269300      -0.24525700
C        1.22982100       2.49017700       0.09461200
C        1.20072800       3.62717000       0.96209200
C       -1.21296300       3.71049200       0.74320000
C       -0.04359800       4.22325500       1.26727400
C       -3.28069800       2.52131600      -1.35219300
C       -4.44242300       1.89020500      -1.74282200
C       -4.79043900       0.63473500      -1.19474600
H       -2.17544200       4.16703600       0.93836800
H       -0.06676200       5.09828700       1.90879200
H       -3.00184200       3.49560500      -1.73522200
H       -5.10813000       2.35660700      -2.46136500
N        0.01299400       1.92358000      -0.23704800
N       -2.71649100       0.64652100       0.02971700
C       -4.31223800      -1.19665300       0.39906200
C       -6.00370600      -0.01291500      -1.54531200
H       -6.64973100       0.46234400      -2.27658500
C       -5.52111800      -1.78255700       0.02339300
C       -6.35316000      -1.20734200      -0.95693500
H       -7.28004100      -1.70359500      -1.22387700
C        2.47096300       2.00691500      -0.41045500
C        2.42665900       4.14124000       1.45770100
H        2.39570300       4.98953100       2.13366200
C        3.62428000       3.57953200       1.07113700
H        4.56172900       3.96306500       1.45921600
C        3.64608700       2.54874200       0.11071100
H        4.59377000       2.18240900      -0.26870100
H       -5.82473600      -2.70098700       0.51450000
C       -3.59574600      -1.83723700       1.46005400
C        2.57876800       1.16447500      -1.56111400
N       -3.15339400      -2.44308000       2.34749100
N        2.74553500       0.61485700      -2.57011800
