59
Properties=species:S:1:pos:R:3 pbc="F F F"
Si      -0.08240400      -0.51905200       0.73839800
O       -0.88695600      -0.94795400      -0.63042600
C       -2.15433800      -1.61660200      -0.81314300
C       -2.10086600      -3.08327100      -0.44420000
H       -2.91718600      -1.11247900      -0.21185900
C       -0.97484100      -3.86044100      -0.73923200
C       -3.21990700      -3.68425900       0.14390300
C       -0.96601800      -5.22491800      -0.43662400
H       -0.10439800      -3.39899800      -1.19448900
C       -3.21521900      -5.04978300       0.43888600
H       -4.09034200      -3.07716200       0.38255600
C       -2.08561400      -5.82358600       0.15056500
H       -0.08454000      -5.82003300      -0.66156400
H       -4.08598800      -5.50658500       0.90209900
H       -2.07706100      -6.88457100       0.38643100
C       -2.50625800      -1.46483900      -2.31192800
C       -2.71641000      -0.08340100      -2.73853400
H       -3.41652500      -2.04845600      -2.49776700
H       -1.70095800      -1.92480200      -2.89853600
C       -2.90775000       1.05443300      -3.10203600
H       -3.08602500       2.04997100      -3.44125300
Cl       1.50240100      -1.53314800       1.70913900
Cl      -1.53451800      -1.11685000       2.23694500
O        1.20143200       0.07749900      -0.63519300
O       -0.17554400       1.19668600       1.30242300
C        2.08185800       2.10039400       0.01404100
C        0.74663300       2.65498800      -0.27602300
C       -1.60288800       2.72643400       0.20673200
C        3.52729900       0.21009600      -0.25378800
C        4.61435800       0.99996400       0.24291500
C        3.13917100       2.90802800       0.44659500
C        4.38869200       2.34742700       0.60416300
C        0.60165100       3.62910100      -1.27236600
C       -0.66158200       4.04657800      -1.63300100
C       -1.78922700       3.60426900      -0.90906100
H        2.94430700       3.94947100       0.67193200
H        5.21534400       2.93985300       0.98184600
H        1.48866700       3.97520600      -1.78880900
H       -0.79947100       4.72929400      -2.46507300
N        2.27055100       0.79135000      -0.26448300
N       -0.33618300       2.19569300       0.38663800
C       -2.69112200       2.47879000       1.09274300
C       -3.09887400       4.04223600      -1.23361400
H       -3.22720200       4.68657600      -2.09761300
C       -3.95988300       2.92976200       0.72252500
C       -4.17280500       3.66519800      -0.45891900
H       -5.17767100       3.98454400      -0.71291200
C        3.77168400      -1.10636400      -0.74147700
C        5.90558400       0.41779200       0.33505400
H        6.71671700       1.02069400       0.73053700
C        6.12037300      -0.87552200      -0.08447800
H        7.10672300      -1.32149700      -0.01566400
C        5.06376000      -1.62202300      -0.64168800
H        5.25173600      -2.62172100      -1.01856800
H       -4.78936400       2.74632100       1.39731600
C       -2.53891000       2.01908300       2.43786500
C        2.80513900      -1.92307900      -1.40841300
N       -2.51235000       1.80060100       3.57827000
N        2.14931000      -2.66731700      -2.01311600
