77
Properties=species:S:1:pos:R:3 pbc="F F F"
Si       0.06647100      -0.48440100      -0.94770400
O       -1.28955300       0.43554000      -1.04053800
C       -1.78302200       1.76753200      -1.26973400
C       -1.27404900       2.73294300      -0.21908300
H       -2.86505800       1.66134400      -1.13827900
C        0.09202500       3.01931800      -0.08109700
C       -2.19084300       3.34910500       0.64055200
C        0.52774400       3.89181800       0.91770100
H        0.81762600       2.55389100      -0.74046200
C       -1.75703000       4.22811700       1.63635900
H       -3.24923200       3.12621900       0.53626800
C       -0.39345400       4.49725700       1.78036700
H        1.58824800       4.10195900       1.02217400
H       -2.48042900       4.69455700       2.30000600
H       -0.04937200       5.17577800       2.55660400
C       -1.55747900       2.29621800      -2.70593200
C       -2.09555800       1.40248200      -3.72719400
H       -2.06907100       3.26658600      -2.75566000
H       -0.49360700       2.47965800      -2.87830400
C       -2.56190400       0.64588200      -4.54758500
H       -2.95940800      -0.02540600      -5.27680000
Cl       0.26511200      -2.42673600      -1.76167800
Cl       1.20082600       0.45406100      -2.56850600
O        1.32943900       0.08586500       0.20571000
O       -0.75218500      -1.42468200       0.48445300
C        1.03239400      -0.88495000       2.30784700
C       -0.30226100      -0.26501100       2.40359300
C       -2.54473700      -0.23936700       1.52824400
C        3.09763400      -1.21076200       1.10192700
C        3.44360500      -2.23772900       2.05112900
C        1.45703600      -1.73699000       3.33603600
C        2.61490100      -2.46256100       3.17058800
C       -0.64166100       0.59253800       3.45510200
C       -1.91806300       1.10747100       3.50206500
C       -2.88511400       0.71489800       2.55114300
H        0.81195100      -1.86890700       4.19597600
H        2.90612100      -3.21106600       3.90046200
H        0.11869600       0.86466700       4.17706500
H       -2.19353700       1.82680400       4.26634100
C       -4.18785400       1.27014400       2.57539600
C       -3.53354500      -0.70395100       0.61120300
N        1.80971100      -0.68373900       1.22158800
N       -1.21314000      -0.63359000       1.48065000
C        4.04648400      -0.78807100       0.12155600
C        4.63249900      -2.98399600       1.86854500
C        5.46111500      -2.69666300       0.80768400
C        5.18368600      -1.58757000      -0.01332500
C        4.02830600       0.49979000      -0.61424000
H        4.87155600      -3.76275400       2.58580400
H        6.36850600      -3.26899100       0.64353600
H        5.92417400      -1.28743700      -0.74762300
C       -5.10664700       0.90523800       1.61967100
C       -4.77657200      -0.08083300       0.66625200
H       -4.42990700       1.99172800       3.34889400
H       -6.10010100       1.34254800       1.61371300
H       -5.53621600      -0.41248000      -0.03502000
C        4.48131800       0.56502400      -1.94173600
C        3.70795900       1.69482900       0.05086700
C        4.27213300       2.97530000      -1.92612600
C        3.82934500       2.92104500      -0.60031700
C        4.59844800       1.79172700      -2.59398600
H        4.93430800       1.82138400      -3.62677600
H        4.36212700       3.93250500      -2.43234700
H        3.58700000       3.83801500      -0.07083400
H        3.37945600       1.66648500       1.08548000
H        4.71755200      -0.35297900      -2.47168800
C       -3.39029200      -1.85200100      -0.32160000
C       -3.12487300      -3.13536000       0.17871500
C       -3.64407900      -1.68685000      -1.68970700
C       -3.11127100      -4.23590000      -0.67789100
H       -2.93461700      -3.26768000       1.24033100
C       -3.61781800      -2.78771200      -2.54812400
H       -3.82841300      -0.69354400      -2.08624100
C       -3.35595500      -4.06507700      -2.04514800
H       -2.90898700      -5.22637700      -0.27887400
H       -3.79578800      -2.64386200      -3.61044900
H       -3.33803300      -4.92198800      -2.71326300
