77
Properties=species:S:1:pos:R:3 pbc="F F F"
Si       0.00542500      -0.64480000       1.14088300
O        0.10680900       0.94030100       1.56393200
C       -0.65000700       2.12148300       1.19643200
C        0.06106200       2.86893600       0.08702200
H       -1.65067400       1.83735900       0.87129100
C        1.34659400       3.39649300       0.28550600
C       -0.56498100       3.05543600      -1.14976600
C        1.97690000       4.12282800      -0.72508100
H        1.85572100       3.23555400       1.23170800
C        0.06706500       3.77831000      -2.16674600
H       -1.55017700       2.63132200      -1.30913400
C        1.33569300       4.32202100      -1.95279100
H        2.96995800       4.52941700      -0.55750200
H       -0.43234800       3.91703800      -3.12225900
H        1.82839100       4.88748200      -2.73943300
C       -0.77060800       2.99339900       2.46862800
C       -1.36305200       2.29745400       3.60782800
H       -1.37368600       3.87187800       2.20590100
H        0.22635500       3.35723500       2.74564600
C       -1.82995000       1.71250300       4.55739000
H       -2.25184400       1.19135200       5.38842500
Cl       1.34501500      -1.23857800       2.75934800
Cl      -1.45309500      -2.08464000       1.72339600
O       -1.14862400      -0.12157400      -0.32696100
O        1.16574600      -1.30100700      -0.05898300
C       -0.58493800      -1.39645400      -2.14554600
C        0.63621200      -0.57128900      -2.20514800
C        2.70553000       0.12745900      -1.18141700
C       -2.78128300      -1.62147600      -1.19668800
C       -2.97034700      -2.79646900      -2.00394500
C       -0.81067200      -2.44634900      -3.04152000
C       -1.97153300      -3.18166000      -2.92517800
C        0.86681600       0.23993300      -3.32065000
C        1.92184400       1.12561500      -3.29456200
C        2.85231400       1.09611600      -2.23642800
H       -0.04197600      -2.69084500      -3.76454100
H       -2.13503500      -4.05711000      -3.54552500
H        0.15567400       0.21324200      -4.13700500
H        2.05774300       1.84538500      -4.09464900
C        3.95347600       1.98400300      -2.21818500
C        3.76950600      -0.09224700      -0.25382200
N       -1.51237500      -1.05008700      -1.22834700
N        1.49584200      -0.56697400      -1.16491200
C       -3.84420000      -1.10712000      -0.40316500
C       -4.16913100      -3.53980800      -1.86389900
C       -5.13838500      -3.11970900      -0.98176800
C       -4.98194600      -1.89805100      -0.29177200
C       -3.89193900       0.26178600       0.17268700
H       -4.29905400      -4.43213200      -2.46812100
H       -6.05208100      -3.69162000      -0.85418700
H       -5.80089000      -1.52294100       0.31462000
C        4.88630200       1.89415900      -1.21130000
C        4.80475400       0.84473800      -0.27746900
C        3.97407500      -1.31559800       0.55867000
H        4.04061300       2.71668600      -3.01321300
H        5.72690800       2.57953000      -1.17282900
H        5.62932100       0.69975400       0.41306500
C       -4.13564600       0.46611600       1.53665300
C       -3.83752400       1.36779800      -0.68994900
C       -4.26517000       2.85769200       1.16965500
C       -4.02769000       2.65822700      -0.19415100
C       -4.31426200       1.75946800       2.03227400
H       -4.47845700       1.90901400       3.09402300
H       -4.40586300       3.86255300       1.55783700
H       -3.98771800       3.50664700      -0.87161300
H       -3.66381600       1.21199500      -1.75142400
C        3.73582500      -2.58293300       0.00164700
C        4.55444700      -1.23578000       1.83504800
C        4.62413400      -3.65005300       1.98472900
C        4.87397700      -2.39300100       2.54359700
C        4.05584900      -3.74032900       0.70956600
H        3.31443700      -2.66356500      -0.99578000
H        3.86888300      -4.71291100       0.26241300
H        4.87088700      -4.55255900       2.53731400
H        5.30710400      -2.31289700       3.53679700
H        4.72938600      -0.26204500       2.28282800
H       -4.16674200      -0.38711500       2.20692500
