77
Properties=species:S:1:pos:R:3 pbc="F F F"
Si      -0.35777000       0.16263000       1.13748900
O       -0.03089200       1.52181100       0.27529000
C        1.06950100       2.43310000       0.29499600
C        1.99827300       2.17445200      -0.87553100
H        1.63058900       2.33238200       1.22906300
C        1.56134400       1.52700500      -2.03807900
C        3.31677200       2.64181400      -0.80661000
C        2.43341500       1.35328900      -3.11633500
H        0.54167000       1.15886000      -2.09031300
C        4.18885000       2.46812000      -1.88371300
H        3.66170400       3.14001000       0.09689800
C        3.74682100       1.82469300      -3.04404400
H        2.08803300       0.84168100      -4.01080100
H        5.21209500       2.82793200      -1.81473100
H        4.42569700       1.68092200      -3.88018400
C        0.48690100       3.86761900       0.21949500
C       -0.28228200       4.22985600       1.40659600
H        1.32247000       4.56576500       0.08616200
H       -0.14622400       3.93159300      -0.67467600
C       -0.91139600       4.50914200       2.40110100
H       -1.47060300       4.75253500       3.27770900
Cl       0.88365800       0.50263200       2.90375200
Cl      -2.10717200       0.01386100       2.35789200
O       -1.38339300      -0.28245200      -0.39923100
O        0.59534400      -1.33887600       0.88076600
C       -1.56591300      -2.57343900      -0.40958800
C       -0.19024000      -2.58263700      -0.93964000
C        2.09801900      -1.80848800      -0.90057700
C       -3.54901400      -1.22304600      -0.17884700
C       -4.28150900      -2.41933200       0.14042100
C       -2.28621900      -3.75354500      -0.19000000
C       -3.62173000      -3.66822600       0.13902700
C        0.00458700      -3.21229700      -2.17725600
C        1.19016400      -3.02691900      -2.84757000
C        2.23762400      -2.29893100      -2.25094800
H       -1.76660600      -4.70209100      -0.25260400
H       -4.18716700      -4.56182400       0.38362000
H       -0.82469100      -3.75281400      -2.61656200
H        1.32639300      -3.42539500      -3.84800100
C        3.43441600      -2.06500200      -2.96710300
C        3.23340300      -1.25899200      -0.22845500
N       -2.17414700      -1.36885400      -0.32640900
N        0.81818100      -1.90765800      -0.34479300
C       -4.21335900       0.03318000      -0.29518800
C       -5.65834900      -2.31997700       0.45860800
C       -6.27786600      -1.09121000       0.44654800
C       -5.56092100       0.05767300       0.05042800
C       -3.61352600       1.28030400      -0.83699900
H       -6.20074900      -3.22732400       0.70474100
H       -7.32948700      -1.00246200       0.70039500
H       -6.08523100       1.00490800      -0.03137700
C        4.46015300      -1.37114800      -2.37219400
C        4.35810900      -1.01168900      -1.01743000
C        3.41059600      -1.09051300       1.23468900
H        3.51067400      -2.44019500      -3.98240300
H        5.37242300      -1.15147100      -2.91665200
H        5.22429400      -0.57812000      -0.52914600
C       -3.67985200       2.47074600      -0.10029000
C       -3.06207600       1.30180200      -2.12802000
C       -2.63405700       3.67573000      -1.92127200
C       -2.57574700       2.49177600      -2.66655100
C       -3.18637300       3.66151000      -0.63802500
H       -3.22124400       4.57234600      -0.04821100
H       -2.25004500       4.60225000      -2.33976500
H       -2.15143200       2.49747500      -3.66705600
H       -3.01727500       0.38324100      -2.70654200
C        4.06576400       0.04419500       1.73812600
C        3.09843100      -2.14244900       2.11055100
C        4.08388600      -0.92246500       3.95547400
C        3.43463700      -2.05856600       3.46047300
C        4.39596800       0.12967300       3.09012600
H        4.30070000       0.86331000       1.06529200
H        4.89074100       1.02010400       3.46847800
H        4.34256700      -0.85831500       5.00893900
H        3.19331700      -2.88248600       4.12662200
H        2.60838700      -3.03369300       1.72958400
H       -4.09244900       2.45456000       0.90418000
