77
Properties=species:S:1:pos:R:3 pbc="F F F"
Si      -0.12952300       0.18023800      -1.02152200
O       -0.91536700       0.96698300       0.18539600
C       -0.37142500       1.99975700       1.02642200
C       -0.59777100       3.37654900       0.43359800
H        0.70089300       1.83510900       1.17957600
C       -1.62833300       3.61900100      -0.48183400
C        0.21327900       4.43856100       0.85318900
C       -1.84151500       4.90994700      -0.97438800
H       -2.24627500       2.79466800      -0.82149100
C       -0.00064100       5.72917900       0.36365300
H        1.02050800       4.24805700       1.55538700
C       -1.03103900       5.96859800      -0.55266400
H       -2.63908700       5.08694400      -1.69171900
H        0.63958700       6.54477900       0.69037800
H       -1.19574000       6.97095500      -0.93940600
C       -1.08765700       1.88858300       2.39528600
C       -0.84432400       0.62542900       3.08711900
H       -0.74569400       2.72376800       3.01883000
H       -2.16361200       2.02785600       2.22705000
C       -0.63204700      -0.41543600       3.66455400
H       -0.43925500      -1.32688100       4.18413800
Cl       1.50228300       1.36845900      -1.80469300
Cl      -1.23695600       0.48142500      -2.84973000
O        1.13334600      -0.62418800       0.12907400
O       -0.96600400      -1.43311000      -1.05879800
C        1.31145100      -2.83099700      -0.51038100
C        0.06497900      -3.04275700       0.24692900
C       -2.12650600      -2.24305600       0.86316500
C        3.22271300      -1.37200100      -0.72400500
C        3.84171900      -2.36851000      -1.55783300
C        1.96155300      -3.85695800      -1.20396000
C        3.18220500      -3.59649600      -1.79048400
C        0.06451500      -3.98716800       1.28149400
C       -0.98043700      -3.99355000       2.17683400
C       -2.05744000      -3.09609700       2.02491800
H        1.46544500      -4.81481700      -1.30429600
H        3.66462800      -4.34420100      -2.41192500
H        0.93007700      -4.62698700       1.40198000
H       -0.96845500      -4.66127400       3.03269800
C       -3.06688100      -3.01824000       3.01386400
C       -3.28396100      -1.43949200       0.63725000
N        1.89495600      -1.61217800      -0.38099800
N       -1.00132200      -2.24262400       0.04379800
C        3.95380500      -0.22833600      -0.28292400
C        5.12291000      -2.10803200      -2.10304400
C        5.77271400      -0.93473300      -1.79257700
C        5.20518300      -0.03748000      -0.86423200
C        3.55561900       0.66904900       0.83107200
H        5.57684100      -2.85578600      -2.74530500
H        6.75216700      -0.72173100      -2.20898700
H        5.78828100       0.81848700      -0.53896700
C       -4.09740200      -2.12013000       2.86897800
C       -4.20348100      -1.36907500       1.68287300
C       -3.69220200      -0.78713400      -0.63398500
H       -2.99324800      -3.66767100       3.88022200
H       -4.86091800      -2.02357500       3.63422000
H       -5.07716400      -0.74176600       1.53625300
C        3.72093100       2.05838400       0.71575700
C        3.10888900       0.13802300       2.05152400
C        2.97501100       2.36109700       2.99941100
C        2.81794500       0.97723300       3.12629200
C        3.43118700       2.89791400       1.79152400
H        3.55090200       3.97202600       1.68102000
H        2.74031300       3.01570400       3.83434500
H        2.46126700       0.55183500       4.05915500
H        2.98833000      -0.93590600       2.15840200
C       -3.87501400      -1.56436600      -1.78732600
C       -4.08821800       0.55801500      -0.64352900
C       -4.84632700       0.33589700      -2.93103500
C       -4.65463500       1.11838500      -1.78889700
C       -4.45430000      -1.00660200      -2.92664800
H       -3.58165000      -2.61038500      -1.78177300
H       -4.59990500      -1.62055100      -3.81138400
H       -5.29367500       0.77012900      -3.82105600
H       -4.94483400       2.16568900      -1.78886900
H       -3.93944400       1.16245300       0.24563300
H        4.05092300       2.48013000      -0.22834600
