77
Properties=species:S:1:pos:R:3 pbc="F F F"
Si       0.03248400      -0.41453800      -0.10659400
O       -1.45093700      -1.18759300       0.00100900
C       -2.02986400      -2.27043500      -0.73035000
C       -3.41020400      -2.56272500      -0.17639200
H       -2.10990400      -1.98683100      -1.78701700
C       -3.58528200      -2.83834700       1.18581700
C       -4.50624900      -2.65485200      -1.03949600
C       -4.83762600      -3.21052600       1.67541700
H       -2.73911900      -2.74779000       1.86096500
C       -5.76416100      -3.02554500      -0.55217700
H       -4.37307300      -2.43744600      -2.09696200
C       -5.93082200      -3.30955000       0.80656500
H       -4.96444900      -3.41801900       2.73480700
H       -6.61033200      -3.09074000      -1.23132500
H       -6.90679800      -3.59813800       1.18800900
C       -1.19270100      -3.58096500      -0.63286800
C        0.07763200      -3.52038500      -1.34147200
H       -1.80436300      -4.39086500      -1.05016800
H       -1.03277800      -3.80697700       0.42789900
C        1.10993700      -3.43915800      -1.96596900
H        2.03196300      -3.33362800      -2.49238500
Cl      -0.02323900      -0.08564500      -2.23368000
Cl       0.87365800      -1.62294700       1.48644300
O       -0.52206100       1.06417100       0.71429500
O        1.80001100       0.34899200      -0.35746600
C        0.98032100       2.77165200       0.29399000
C        1.94294400       2.06651000       1.16458800
C        3.49851700       0.23999800       1.32591400
C       -1.22317800       2.86333900      -0.68066600
C       -0.76395400       3.93751300      -1.52183100
C        1.37161300       3.93473400      -0.37932400
C        0.52881200       4.46926900      -1.32997800
C        2.39808700       2.63021000       2.35883600
C        3.29881600       1.91952900       3.12355700
C        3.86249800       0.72180300       2.63349600
H        2.36344900       4.33076800      -0.19960200
H        0.85168500       5.30461700      -1.94327000
H        1.98625100       3.57926600       2.67999200
H        3.59785400       2.28207200       4.10194600
C        4.79984900      -0.00877400       3.40452100
C        4.21751800      -0.83595000       0.72343500
N       -0.25047100       2.25676100       0.10923600
N        2.42327300       0.88361000       0.71997000
C       -2.59233500       2.46888400      -0.68942700
C       -1.62983300       4.45476800      -2.51517200
C       -2.90160400       3.94309400      -2.64541600
C       -3.37634700       2.99791700      -1.71514200
C       -3.27108100       1.70906700       0.38506500
H       -1.27044700       5.25735000      -3.15112100
H       -3.56970900       4.31607100      -3.41513100
H       -4.42331700       2.71338400      -1.74633400
C        5.37717300      -1.14322600       2.88218800
C        5.11538100      -1.51314100       1.54795600
C        4.22371700      -1.16691400      -0.72242700
H        5.05379000       0.35520900       4.39503900
H        6.08822800      -1.71952100       3.46557800
H        5.68599900      -2.32761100       1.11345800
C       -4.25688800       0.76133000       0.07359000
C       -3.04423600       2.03949700       1.73208500
C       -4.76638400       0.48567600       2.42134700
C       -3.78637600       1.43102600       2.74293600
C       -4.99822700       0.15381000       1.08452900
H       -5.73357200      -0.60080200       0.82827800
H       -5.33946800       0.00391400       3.20888900
H       -3.60434700       1.69974600       3.78012600
H       -2.29988400       2.78890000       1.98576500
C        4.28733100      -0.14645000      -1.68745700
C        4.33577200      -2.50184300      -1.14486100
C        4.56487000      -1.78615200      -3.44747900
C        4.51298500      -2.80816400      -2.49530000
C        4.44968200      -0.45322800      -3.03706200
H        4.22829100       0.89186800      -1.37669900
H        4.49790800       0.34906400      -3.76821800
H        4.69716800      -2.02469100      -4.49917200
H        4.59668600      -3.84697700      -2.80347100
H        4.27313100      -3.30177100      -0.41308200
H       -4.42509500       0.48226200      -0.96197100
