57
Properties=species:S:1:pos:R:3 pbc="F F F"
Si      -0.18543200       1.83831200       0.64849100
O        0.92164000       2.20362900      -0.51431600
C        2.35399400       2.21390000      -0.48686400
C        2.91013000       0.84987400      -0.84858900
H        2.70792600       2.50748400       0.50629800
C        2.23295900       0.00024000      -1.73434100
C        4.16316100       0.46488400      -0.35146200
C        2.80350100      -1.21631000      -2.11710000
H        1.25808100       0.29193700      -2.11075200
C        4.73772000      -0.74602900      -0.74361200
H        4.68875100       1.11899500       0.34090400
C        4.05864400      -1.58953700      -1.62876400
H        2.26734500      -1.87335300      -2.79659700
H        5.70736600      -1.03717100      -0.34915900
H        4.49768100      -2.53879000      -1.92165400
C        2.82729800       3.27166000      -1.51449200
C        2.41080600       4.62877500      -1.16888400
H        3.92153100       3.21700200      -1.57115700
H        2.43576200       2.98994900      -2.50065400
C        2.05716400       5.74343600      -0.86029400
H        1.74560800       6.72882200      -0.59060400
Cl       0.85470300       2.78308900       2.37410500
Cl      -1.91346200       3.03589700       0.87410900
O       -1.00033300       0.86585300      -0.76723600
O       -0.22369000       0.34164900       1.61796600
C       -1.95241200      -1.13488000       0.02185800
C       -0.58836700      -1.60267500       0.28868300
C        1.49539200      -1.17973000       1.39471500
C       -3.30583700       0.62664400      -0.85789900
C       -4.47347600      -0.13554600      -0.67848400
C       -3.06255800      -1.92126800       0.21538200
C       -4.35605000      -1.45294400      -0.11917700
C       -0.11645400      -2.81556300      -0.15602600
C        1.18506000      -3.26488000       0.17068800
C        2.01003100      -2.41685000       0.98425100
H       -2.93542200      -2.90920300       0.64419500
C       -5.52576400      -2.22349600       0.07655300
H       -0.76423700      -3.42561800      -0.77542700
C        1.69796700      -4.50943600      -0.25985100
C        3.30844400      -2.83672200       1.36709000
H        2.03877300      -0.48387500       2.02033100
N       -2.11393900       0.13913800      -0.51164400
N        0.25569700      -0.81572800       1.05871500
H       -3.30121700       1.62104600      -1.28362300
C       -5.74733200       0.37512200      -1.03362500
C       -6.75704100      -1.70273200      -0.27476800
C       -6.86887400      -0.40315200      -0.83105100
H       -5.82380700       1.37266700      -1.45519400
H       -5.44045400      -3.21813400       0.50326200
H       -7.65486600      -2.29445700      -0.12318900
H       -7.84886300      -0.01918100      -1.09684100
C        2.96600100      -4.89916000       0.12989000
C        3.76874300      -4.06791500       0.95018900
H        3.92265700      -2.18412800       1.97839600
H        1.08473400      -5.15042200      -0.88557600
H        3.35687000      -5.85857900      -0.19566200
H        4.76040600      -4.40130300       1.23929600
