57
Properties=species:S:1:pos:R:3 pbc="F F F"
Si      -0.92370400      -0.55454500       0.77118300
O       -1.82713300       0.21061100      -0.37383500
C       -3.22137000       0.57530500      -0.38869200
C       -4.11496700      -0.63901700      -0.51748900
H       -3.46715500       1.11788100       0.52869100
C       -3.79215900      -1.67594000      -1.40311700
C       -5.29954700      -0.71160100       0.22330900
C       -4.64333700      -2.77478800      -1.54028900
H       -2.86765400      -1.62543300      -1.97147500
C       -6.15610200      -1.80738000       0.08290700
H       -5.54416500       0.08724600       0.91937700
C       -5.82849100      -2.84206300      -0.79902500
H       -4.38274600      -3.57843500      -2.22431200
H       -7.07092900      -1.85775000       0.66754100
H       -6.48932000      -3.69848200      -0.90465600
C       -3.41177500       1.52230400      -1.59761800
C       -2.63912500       2.75878500      -1.49443500
H       -4.48124300       1.75643000      -1.66945000
H       -3.13624500       0.97791800      -2.50983800
C       -1.99873500       3.78071100      -1.39717900
H       -1.43980200       4.68717200      -1.32235400
Cl      -0.89392400      -2.64438100       1.13307500
Cl      -2.19676100      -0.16318700       2.54799100
O        0.27008300      -0.78066900      -0.69313400
O        0.35791900       0.36932800       1.59613400
C        2.48513000      -0.31760400      -0.03222100
C        2.07711700       1.08218400       0.11696700
C        0.49545500       2.61349500       1.06498100
C        1.81147600      -2.51018000      -0.70054100
C        3.12008100      -2.99782400      -0.53830400
C        3.77949500      -0.74397400       0.14220700
C        4.14272800      -2.09133800      -0.09699900
C        2.75268500       2.12526100      -0.47197100
C        2.32318000       3.46403000      -0.31020000
C        1.14967800       3.70884900       0.48159600
H        4.52293800      -0.02976000       0.47941400
C        5.46027900      -2.57402800       0.07962700
H        3.61534600       1.90144700      -1.08954200
C        2.98787500       4.56059900      -0.90729100
C        0.67515900       5.03239500       0.66552300
H       -0.38234500       2.70349600       1.69265200
N        1.52235600      -1.23265200      -0.44879600
N        0.96048500       1.37650300       0.88571500
H        0.98486200      -3.11936400      -1.03975000
C        3.43742400      -4.35553500      -0.79663000
C        5.74454900      -3.90233000      -0.17573900
C        4.73323800      -4.79409400      -0.61467300
H        2.65705600      -5.03270200      -1.13057700
H        6.23522200      -1.89166400       0.41467800
H        6.75626300      -4.27238300      -0.03923500
H        4.98458000      -5.83250600      -0.80709700
C        2.50351900       5.84100200      -0.71794700
C        1.34729800       6.07874300       0.06937800
H       -0.21058500       5.20285800       1.26920800
H        3.87279100       4.38137700      -1.51019000
H        3.01370800       6.68221200      -1.17744600
H        0.99154000       7.09578300       0.20112200
