63
Properties=species:S:1:pos:R:3 pbc="F F F"
Si      -0.35780700      -1.57982300      -1.04584500
O       -1.82851500      -2.29822900      -0.61879800
C       -2.28884000      -2.53902200       0.72154100
C       -3.15490000      -1.38341600       1.18788000
H       -1.44204800      -2.65881900       1.40874900
C       -4.23377500      -0.95279200       0.40199200
C       -2.87336100      -0.71520400       2.38399900
C       -5.01189700       0.13655800       0.80337200
H       -4.44377300      -1.45336400      -0.53884100
C       -3.64726200       0.37817100       2.78720900
H       -2.02953200      -1.03936300       2.98823300
C       -4.71767400       0.80753900       1.99649100
H       -5.84116200       0.46624900       0.18305900
H       -3.41024900       0.89760000       3.71195900
H       -5.31634100       1.66035300       2.30485400
C       -3.11073600      -3.85133800       0.71572700
C       -2.32697000      -5.04326500       0.40238800
H       -3.57287400      -3.96318500       1.70523800
H       -3.92689800      -3.73652600      -0.00884300
C       -1.67789300      -6.03429400       0.15842100
H       -1.09943800      -6.90340900      -0.06629500
Cl      -1.02318300      -1.38465300      -3.05640600
Cl       0.93153100      -3.14884200      -0.41902800
O       -0.41841300      -0.39730100       0.31694900
O        1.09644100      -0.54820500      -1.73178700
C        0.72530300       1.61354300      -0.16693300
C        1.95972000       0.82275200      -0.00540400
C        3.23181400      -0.96793400      -0.95703900
C       -1.66971000       1.51019500      -0.02562300
C       -1.76898100       2.88545500      -0.28309600
C        0.69449000       2.96340500      -0.47486100
C       -0.57110900       3.63609900      -0.52331500
C        2.95629300       1.11181800       0.90960600
C        4.17293800       0.35402500       0.87045000
C        4.31141300      -0.68925100      -0.10318600
C       -0.69738500       5.01994900      -0.79347800
C        5.25953300       0.59875300       1.74396100
C        5.50551500      -1.44961500      -0.18410000
H        3.23662800      -1.76083100      -1.69267000
N       -0.47341400       0.93346300       0.01748100
N        2.11959000      -0.24571800      -0.88425900
H       -2.52361700       0.86754800       0.14528600
C       -3.04034600       3.51310000      -0.31728600
C       -1.94634200       5.61477300      -0.81883900
C       -3.12271400       4.86364400      -0.58180200
H       -3.92822500       2.91701500      -0.13184300
H        0.18670000       5.61963400      -0.97563900
H       -2.02644100       6.67811400      -1.02440300
H       -4.08986200       5.35577200      -0.61023900
C        6.41713500      -0.15268000       1.64689700
C        6.54415500      -1.18055900       0.68251100
H        5.58296300      -2.23740900      -0.92710400
H        5.18884600       1.38233900       2.48938200
H        7.24308700       0.04919400       2.32247500
H        7.46196000      -1.75773200       0.62858900
C        1.95484600       3.72735200      -0.77559200
H        2.15551100       4.45973200       0.01495600
H        2.82042900       3.07235900      -0.87312900
H        1.83037800       4.28123100      -1.71179700
C        2.78251000       2.19146300       1.94291300
H        3.01230300       1.78659500       2.93421100
H        3.47853000       3.01730900       1.75642200
H        1.76656000       2.58683400       1.95932300
