63
Properties=species:S:1:pos:R:3 pbc="F F F"
Si       0.52000500      -1.15976900       1.34997400
O       -0.14477800      -2.39549600       0.48074200
C        0.03534700      -2.77313200      -0.90817800
C        1.44872500      -3.24724200      -1.15939300
H       -0.18519200      -1.91991600      -1.55467800
C        2.04580800      -4.18953900      -0.31080700
C        2.16778500      -2.75417100      -2.25369300
C        3.34758500      -4.63076100      -0.55499700
H        1.49567300      -4.56011600       0.54974400
C        3.46988100      -3.19860500      -2.50339500
H        1.70780600      -2.01435400      -2.90499700
C        4.06218500      -4.13748300      -1.65302100
H        3.80607700      -5.35686400       0.11116100
H        4.02210600      -2.80773700      -3.35417200
H        5.07633400      -4.47999000      -1.84121400
C       -0.99764100      -3.88599200      -1.19501200
C       -2.37752000      -3.40860900      -1.12646100
H       -0.79334800      -4.28074900      -2.19830200
H       -0.83630000      -4.70533900      -0.48350900
C       -3.50837900      -2.98036900      -1.08787000
H       -4.50964300      -2.61222900      -1.04749600
Cl       2.57303900      -0.90486500       1.81153100
Cl       0.08216200      -2.18386300       3.26241000
O        0.75439500      -0.20158400      -0.28053500
O       -0.51271600       0.18688500       1.90928500
C        0.08000100       2.02887000       0.01869400
C       -1.28556700       1.47223400       0.06814700
C       -2.71405500      -0.04555800       1.26380900
C        2.36211500       1.45059900      -0.42508700
C        2.73799500       2.80324500      -0.37200000
C        0.38669200       3.37149000       0.13795300
C        1.74384200       3.79023800      -0.06404900
C       -2.30804700       1.81861800      -0.79944500
C       -3.60738800       1.24129700      -0.60837400
C       -3.80602600       0.29988500       0.45567600
C        2.14971800       5.14386000       0.01327500
C       -4.71644700       1.55718900      -1.42949800
C       -5.07660200      -0.28992300       0.67832200
H       -2.75927700      -0.76843700       2.06889200
N        1.09570900       1.10414100      -0.22195200
N       -1.53417100       0.52880900       1.05785200
H        3.05181600       0.64054900      -0.61955000
C        4.08654700       3.18061100      -0.59473000
C        3.47066300       5.49114300      -0.20799000
C        4.44397100       4.51029700      -0.51310900
H        4.82087600       2.41409000      -0.82304100
H        1.42244500       5.91386300       0.24224700
H        3.76631700       6.53425200      -0.14651600
H        5.47426700       4.80845300      -0.68042200
C       -5.94712900       0.96976700      -1.19759900
C       -6.13254900       0.04457300      -0.14203000
H       -5.19686100      -1.00105600       1.48962500
H       -4.60509500       2.26601500      -2.24140200
H       -6.78806500       1.22384400      -1.83595600
H       -7.10929300      -0.40107400       0.01770200
C       -0.67035500       4.38546200       0.47999100
H       -0.84138400       5.06078900      -0.36619700
H       -1.61703700       3.91606600       0.74927400
H       -0.33341700       4.99589100       1.32440100
C       -2.07460900       2.76642100      -1.94404200
H       -2.45822000       2.32383700      -2.86897100
H       -2.61645700       3.70487400      -1.77916500
H       -1.01787400       2.99490000      -2.08184600
