63
Properties=species:S:1:pos:R:3 pbc="F F F"
Si       0.49139100      -1.62482000       0.64369900
O        1.75421100      -2.39419100      -0.17036600
C        3.16714600      -2.18105000      -0.10005100
C        3.61634400      -0.89824100      -0.77155800
H        3.48350600      -2.15775900       0.94852400
C        3.17613300      -0.56626900      -2.06044200
C        4.50126800      -0.03828800      -0.10948100
C        3.60373800       0.61425700      -2.67096300
H        2.47606100      -1.22240900      -2.56855200
C        4.93934800       1.14177900      -0.72222600
H        4.83748400      -0.28893800       0.89376200
C        4.48768600       1.47220500      -2.00315900
H        3.24717300       0.86871200      -3.66550800
H        5.62264700       1.80324400      -0.19612600
H        4.81675900       2.39270900      -2.47753200
C        3.84202800      -3.39887200      -0.78196500
C        3.57994200      -4.66037800      -0.09304600
H        4.92290200      -3.21112000      -0.81483600
H        3.48966700      -3.45134400      -1.82013300
C        3.36425900      -5.69391900       0.49759500
H        3.17126700      -6.60925900       1.01291600
Cl       1.47945000      -1.19085200       2.47509300
Cl      -0.75640100      -3.31554500       0.26284800
O        0.41955000      -0.31343000      -0.56622400
O       -0.98730800      -0.77186600       1.54553100
C       -1.00768500       1.47855500       0.09598000
C       -2.13363800       0.53812600      -0.04748700
C       -3.14477000      -1.37987100       0.96387700
C        1.37112000       1.72283800      -0.08888200
C        1.28765100       3.07926000       0.25543900
C       -1.15587400       2.79995400       0.48873500
C        0.00388700       3.64088500       0.55548900
C       -3.21773700       0.73640600      -0.88278400
C       -4.34481900      -0.14335600      -0.77131100
C       -4.30923900      -1.19804700       0.19936400
C       -0.05563400       5.01083100       0.90761300
C       -5.51188700      -0.00076500      -1.55894300
C       -5.41632400      -2.06865300       0.36243300
H       -3.01797800      -2.17750400       1.68238200
N        0.26721900       0.98726500      -0.15694700
N       -2.11295800      -0.55715300       0.81330000
H        2.30076600       1.21915700      -0.31442500
C        2.46188300       3.87292300       0.31348800
C        1.10007700       5.76998000       0.95479200
C        2.36360300       5.20360300       0.65965100
H        3.41827000       3.41557000       0.08092500
H       -1.00985100       5.47074100       1.13531200
H        1.03754600       6.82023300       1.22384200
H        3.25451900       5.82202900       0.70688000
C       -6.58275400      -0.85915100      -1.38237200
C       -6.53875400      -1.89642500      -0.42073200
H       -5.36203800      -2.86307300       1.10072800
H       -5.57056500       0.78844500      -2.29914500
H       -7.47288800      -0.73535400      -1.99207600
H       -7.39143000      -2.55798800      -0.30350100
C       -2.49952800       3.36209200       0.86788100
H       -2.83295300       4.09079700       0.11967500
H       -3.26020900       2.58778200       0.96223400
H       -2.41890500       3.88691500       1.82509700
C       -3.23490000       1.85404400      -1.88969800
H       -3.47860200       1.44988800      -2.87815000
H       -4.00789400       2.58847200      -1.63585700
H       -2.27341700       2.36466700      -1.95263300
