63
Properties=species:S:1:pos:R:3 pbc="F F F"
Si       0.21933600      -1.91923600      -0.66510900
O        1.79508200      -1.42150200      -0.73722300
C        2.93554400      -1.74544700       0.09051200
C        2.80480500      -1.13758600       1.47075200
H        3.02706100      -2.83151000       0.17247600
C        2.51233200       0.22397100       1.62575300
C        2.99966300      -1.92660600       2.60930800
C        2.40564700       0.78773300       2.89776800
H        2.36467100       0.84285600       0.74806900
C        2.90229500      -1.36468100       3.88595300
H        3.21528300      -2.98539600       2.49280200
C        2.60199300      -0.00693200       4.03304200
H        2.17522900       1.84464900       3.00441900
H        3.05249800      -1.98794900       4.76352900
H        2.52040500       0.42950200       5.02505800
C        4.18056600      -1.18802500      -0.63800900
C        4.38753300      -1.77005700      -1.96210200
H        5.05137700      -1.38530400      -0.00035200
H        4.08192700      -0.09801400      -0.71439900
C        4.54287500      -2.26325800      -3.05564400
H        4.68507400      -2.70021600      -4.01990400
Cl      -0.77558300      -3.03269700      -2.16809100
Cl       0.49792700      -3.69154000       0.63746800
O       -0.73006500      -1.18748700       0.65450700
O       -0.23760500      -0.45037600      -1.76535800
C       -1.92745700       0.73748800      -0.07718400
C       -0.61450800       1.36824800      -0.31651100
C        1.30972800       1.26844400      -1.73854100
C       -3.02472100      -1.28022000       0.62234900
C       -4.28501600      -0.69176400       0.44844100
C       -3.14078200       1.36788200      -0.30511800
C       -4.35697700       0.66251300      -0.01928800
C       -0.17541300       2.53320800       0.28596700
C        1.04670000       3.12721200      -0.17119200
C        1.77918300       2.48990600      -1.22756000
C       -5.63844700       1.24097400      -0.18158400
C        1.57001900       4.32398900       0.37402100
C        2.98947400       3.04951000      -1.70875200
H        1.83331700       0.68108100      -2.48103700
N       -1.92512900      -0.57859100       0.37219200
N        0.17651200       0.75213900      -1.28140400
H       -2.87609400      -2.29470700       0.97027400
C       -5.46430100      -1.42823100       0.73023900
C       -6.77670800       0.50844900       0.10471500
C       -6.69418100      -0.82977300       0.55882400
H       -5.38021300      -2.45325900       1.07838200
H       -5.73098500       2.26387800      -0.52610900
H       -7.75240500       0.96806800      -0.02175300
H       -7.60353100      -1.38271500       0.77228900
C        2.75296800       4.85344500      -0.11003700
C        3.46703500       4.21811300      -1.15367900
H        3.52772500       2.54467300      -2.50501800
H        1.04047500       4.83162200       1.17184900
H        3.14191100       5.77214000       0.31880900
H        4.39394500       4.65318200      -1.51404800
C       -3.20634900       2.76174500      -0.86786100
H       -3.56660600       3.46419700      -0.10716600
H       -2.23784100       3.10728200      -1.22832400
H       -3.91517300       2.78707500      -1.70145500
C       -0.94697900       3.16786400       1.40900300
H       -0.27616000       3.34814100       2.25560700
H       -1.35201400       4.13760800       1.09754200
H       -1.76851700       2.53583000       1.74814800
