63
Properties=species:S:1:pos:R:3 pbc="F F F"
Si       0.12619900      -2.03513700      -0.44958900
O        1.72003600      -1.72363500      -0.69700300
C        2.98349900      -1.55890100      -0.01428700
C        2.93597100      -0.42335100       0.98720700
H        3.66980000      -1.27846900      -0.82027700
C        2.07132300      -0.45446900       2.08998200
C        3.78009400       0.68044100       0.81455200
C        2.03064200       0.61691200       2.98463500
H        1.42485800      -1.31203700       2.24623600
C        3.75517000       1.74512500       1.71819900
H        4.45249200       0.70946500      -0.03879000
C        2.87188800       1.71993200       2.80078700
H        1.34773500       0.58706600       3.82966000
H        4.41074200       2.59752500       1.56705200
H        2.83997900       2.55253900       3.49857200
C        3.53563700      -2.85962200       0.61535700
C        3.63645600      -3.95901000      -0.33988600
H        4.53373000      -2.61008100       0.99963700
H        2.92334000      -3.15319200       1.47255100
C        3.71763000      -4.85331800      -1.15022600
H        3.78409400      -5.65124600      -1.85702700
Cl      -0.94085500      -3.26181600      -1.79897300
Cl       0.31196300      -3.63249000       1.08392900
O       -0.77734200      -1.12447100       0.79554300
O       -0.30194300      -0.64897300      -1.68085300
C       -1.87499500       0.79031300      -0.09702300
C       -0.53049800       1.31277200      -0.39943900
C        1.36485000       0.95579400      -1.81459700
C       -3.07512200      -1.09484900       0.77898500
C       -4.30246500      -0.45331700       0.55897900
C       -3.05204800       1.46589100      -0.37514900
C       -4.30254800       0.85724600      -0.02515300
C       -0.00900400       2.49338700       0.09418200
C        1.24078500       2.96278700      -0.42540600
C        1.91657900       2.18622400      -1.42224900
C       -5.55113500       1.48964100      -0.23678900
C        1.83858900       4.17268300      -0.00224100
C        3.14863200       2.62732900      -1.96701000
H        1.83747000       0.27479100      -2.50884400
N       -1.94094500      -0.47830500       0.46548000
N        0.20277000       0.55974200      -1.31104300
H       -2.97841400      -2.08286300       1.21139200
C       -5.51930100      -1.09468300       0.90613400
C       -6.72651300       0.84876900       0.11191300
C       -6.71533400      -0.44662200       0.68274100
H       -5.48999100      -2.08771400       1.34401100
H       -5.58931400       2.48205300      -0.67012500
H       -7.67616900       1.34815800      -0.05534800
H       -7.65258400      -0.92760400       0.94432200
C        3.03840700       4.58828800      -0.54974000
C        3.69813400       3.81571800      -1.53460200
H        3.64610900       2.01727400      -2.71490000
H        1.35248600       4.77698300       0.75419700
H        3.48511600       5.51990400      -0.21537000
H        4.64165300       4.16064000      -1.94605100
C       -3.04231200       2.80633600      -1.05827500
H       -3.36213700       3.59079700      -0.36252100
H       -2.05699900       3.06529100      -1.44522800
H       -3.75123700       2.79737600      -1.89219500
C       -0.72225100       3.27471400       1.16278000
H       -0.03694600       3.45096300       1.99912800
H       -1.03537200       4.25342500       0.78149700
H       -1.59942900       2.74770800       1.53968600
