57
Properties=species:S:1:pos:R:3 pbc="F F F"
Si      -0.10852600      -1.91057300      -0.47422400
O        1.51237000      -1.69360300      -0.53531700
C        2.73233800      -1.66518600       0.23475500
C        2.74183400      -0.49124800       1.19053400
H        3.50720100      -1.50445100      -0.52177500
C        1.77035800      -0.35935200       2.19195800
C        3.74752600       0.47673500       1.08217100
C        1.79363000       0.73772700       3.05546600
H        0.99462500      -1.11177800       2.29568400
C        3.78002900       1.56920200       1.95221100
H        4.50307300       0.37523800       0.30711700
C        2.79808200       1.70494400       2.93694400
H        1.03194100       0.83448500       3.82461500
H        4.56008400       2.31810300       1.85061900
H        2.81421700       2.55890700       3.60887800
C        3.06691200      -2.99272500       0.95366500
C        3.14351600      -4.13077100       0.04253000
H        2.33889600      -3.18232000       1.74759700
H        4.04149900      -2.83814000       1.43541700
C        3.21308600      -5.05401200      -0.73564100
H        3.26574300      -5.87662900      -1.41478100
Cl      -1.08763100      -2.98588000      -1.99599800
Cl      -0.22388100      -3.52799600       1.01291500
O       -1.07243200      -0.95402500       0.69832700
O       -0.30031200      -0.42423900      -1.69012900
C       -1.79459700       1.18312600      -0.09549100
C       -0.40179500       1.54068500      -0.37419600
C        1.51798900       1.04047400      -1.69235400
C       -3.33895400      -0.53301000       0.52599600
C       -4.44407700       0.32222500       0.36377200
C       -2.83003400       2.06701200      -0.25324800
C       -4.17411100       1.67798400      -0.02079400
C        0.19075400       2.68344100       0.09227100
C        1.49520000       3.04774100      -0.32332800
C        2.17779700       2.20969700      -1.26423500
H       -2.60640300       3.07004800      -0.59758100
H       -0.35229900       3.30783800       0.79198900
N       -2.07972600      -0.11656400       0.31954400
N        0.29627500       0.70946800      -1.25221700
F       -3.48287200      -1.77592500       0.91701900
C       -5.77252400      -0.11920000       0.58107000
C       -5.26275900       2.56488400      -0.17894000
C       -6.55340500       2.11905600       0.04033900
H       -7.38660600       2.80436000      -0.08192300
C       -6.80857600       0.77853800       0.41963800
H       -7.83121500       0.45373500       0.58251100
H       -5.07038000       3.59102400      -0.47543200
F        2.06858800       0.23200500      -2.56754900
C        2.14698700       4.20808900       0.15128700
C        3.47613800       2.54644600      -1.71701400
C        3.41648500       4.51912400      -0.29679500
H        3.91547200       5.40971500       0.07271500
C        4.08016200       3.68890100      -1.23198800
H        1.63622000       4.84162700       0.86947200
H        5.07768700       3.95279700      -1.56874900
H       -5.95953000      -1.14727300       0.86948200
H        3.98260100       1.90335500      -2.42737900
