57
Properties=species:S:1:pos:R:3 pbc="F F F"
Si       0.44088800      -1.35154100       0.02006500
O        1.74988800      -0.36713800       0.20713000
C        2.97193500      -0.50296700       0.95540500
C        3.96321900      -1.38459000       0.22875000
H        2.75922700      -0.92097300       1.94277800
C        4.08981400      -1.32476000      -1.16524400
C        4.79665700      -2.23915900       0.95924900
C        5.03808500      -2.11395600      -1.82031300
H        3.43292600      -0.67371100      -1.73446700
C        5.74996700      -3.02535300       0.30594500
H        4.68909700      -2.29681600       2.03998600
C        5.87241200      -2.96413200      -1.08598700
H        5.12453300      -2.06775800      -2.90287300
H        6.38792500      -3.69144800       0.88096700
H        6.60814600      -3.58045300      -1.59599900
C        3.53723900       0.92771900       1.13577000
C        2.63840500       1.80492600       1.88327100
H        3.74702600       1.34833400       0.14422700
H        4.49788700       0.84130300       1.65846400
C        1.87360100       2.50844500       2.50212200
H        1.20723900       3.14145400       3.04548400
Cl       0.15536800      -2.72877300      -1.54854700
Cl       0.95305000      -2.87506700       1.52245300
O       -0.96702800      -0.93960700       1.04499900
O       -0.21036400      -0.08109300      -1.25426100
C       -2.48501000       0.61246000       0.03854500
C       -1.39959900       1.59124000      -0.07775800
C        0.70229300       2.06210000      -1.09764800
C       -3.11775700      -1.63595300       0.55270700
C       -4.45663600      -1.40476000       0.18771900
C       -3.77671900       0.90007100      -0.31698300
C       -4.79884300      -0.08044300      -0.24533000
C       -1.48859900       2.87955200       0.37874900
C       -0.45525200       3.81520800       0.12073500
C        0.67462200       3.39959800      -0.65749200
H       -3.99989900       1.89123000      -0.69377500
H       -2.36109900       3.17532000       0.95012100
N       -2.18668700      -0.67103600       0.49547400
N       -0.27265800       1.19406600      -0.79916100
F       -2.71530700      -2.80354800       0.99240000
C       -5.43884000      -2.42363000       0.24991800
C       -6.13726600       0.18621000      -0.61182700
C       -7.08459300      -0.81880300      -0.54246400
H       -8.11201900      -0.60950400      -0.82411700
C       -6.73634000      -2.12240800      -0.11210300
H       -7.49896000      -2.89337500      -0.06932400
H       -6.40491800       1.18312100      -0.94764000
F        1.68313400       1.61247900      -1.84557500
C       -0.49360100       5.14283900       0.60406800
C        1.72606800       4.30308600      -0.94226400
C        0.54555600       6.01041200       0.32327600
H        0.51407700       7.02809600       0.70032000
C        1.65461500       5.59110200      -0.45062000
H       -1.34455300       5.46429900       1.19642400
H        2.45866800       6.29046200      -0.65644800
H       -5.16404400      -3.41953700       0.57812300
H        2.57561700       3.97359500      -1.52928500
