57
Properties=species:S:1:pos:R:3 pbc="F F F"
Si       0.75933300      -0.57988000       0.45543900
O        2.36461700      -0.57902600      -0.01322800
C        3.38279500      -1.57613300       0.09149000
C        4.61926800      -1.08112300      -0.62983000
H        3.03926000      -2.50512100      -0.37824000
C        5.09647700       0.22171600      -0.42952900
C        5.32807700      -1.95002800      -1.46712900
C        6.26568100       0.64855600      -1.06312800
H        4.54235000       0.89961800       0.21350300
C        6.50210000      -1.52633400      -2.09848600
H        4.95614500      -2.95979900      -1.62686500
C        6.97289200      -0.22523500      -1.89778900
H        6.62672700       1.66183200      -0.90577100
H        7.04276200      -2.20828600      -2.74975500
H        7.88260800       0.10784400      -2.39063800
C        3.72457300      -1.87818700       1.57961700
C        2.60474800      -2.47444600       2.29997100
H        4.02764300      -0.94101400       2.06212600
H        4.58721200      -2.55566600       1.59618400
C        1.63142900      -2.94478700       2.84435300
H        0.77785500      -3.36121300       3.33255500
Cl       1.16673100       0.67717400       2.19340100
Cl       0.31209800      -2.49683900      -0.49621000
O        0.20468400       0.51851900      -0.82560500
O       -0.93869200      -0.59648900       1.28050100
C       -1.92168100       1.44296200      -0.27568600
C       -2.52116500       0.10158500      -0.34213600
C       -2.63421600      -2.06835800       0.64886500
C        0.05850200       2.78537500      -0.37691500
C       -0.66053800       3.96947800      -0.13131100
C       -2.67402300       2.56470100      -0.04299300
C       -2.08102600       3.85136100       0.02817600
C       -3.62354600      -0.17526900      -1.10593900
C       -4.27517500      -1.43297900      -1.02533800
C       -3.77461600      -2.41151900      -0.10383200
H       -3.74007300       2.45176400       0.11624100
H       -3.99601200       0.58960500      -1.77723200
N       -0.54649800       1.59071500      -0.45658800
N       -2.02181000      -0.88466800       0.51294400
F        1.35483100       2.79222200      -0.56768900
C       -0.02423700       5.23187000      -0.04662500
C       -2.83400900       5.02206800       0.27089700
C       -2.19781100       6.24745100       0.34925500
H       -2.78021500       7.14448800       0.53610300
C       -0.79435500       6.35259700       0.19173300
H       -0.31970400       7.32611500       0.26047500
H       -3.90947300       4.94213800       0.39384400
F       -2.12935700      -2.89089700       1.53766600
C       -5.40855900      -1.75495200      -1.80570600
C       -4.40452600      -3.67314300       0.02281900
C       -6.01008800      -2.99302600      -1.67155100
H       -6.88016800      -3.23633300      -2.27367100
C       -5.50843300      -3.95184300      -0.75854300
H       -5.79564200      -1.01964900      -2.50429200
H       -5.99722700      -4.91710200      -0.67341300
H        1.05059800       5.30435100      -0.16681100
H       -4.01260800      -4.40337300       0.72140200
