57
Properties=species:S:1:pos:R:3 pbc="F F F"
Si      -0.92598700      -0.63131800       0.76208000
O       -1.85677600      -0.04201900      -0.45788900
C       -3.24458400       0.34403100      -0.49579300
C       -4.15983600      -0.86039500      -0.51409600
H       -3.47498000       0.96971900       0.37101000
C       -3.84092400      -1.99270100      -1.27500900
C       -5.36293700      -0.82717900       0.19967400
C       -4.71504700      -3.08155800      -1.31627600
H       -2.90219500      -2.02418500      -1.82108300
C       -6.24204900      -1.91271400       0.15392200
H       -5.60376000       0.04600500       0.80155000
C       -5.91901300      -3.04283000      -0.60417600
H       -4.45724200      -3.95960200      -1.90285400
H       -7.17130500      -1.88060700       0.71677400
H       -6.59814000      -3.89085300      -0.63482000
C       -3.42360700       1.18199200      -1.78468800
C       -2.60820600       2.39492900      -1.81487500
H       -4.48576600       1.44496400      -1.86385200
H       -3.18163700       0.54542900      -2.64533900
C       -1.93215100       3.39792800      -1.84478800
H       -1.34849700       4.29071900      -1.88629900
Cl      -0.61115900      -2.66587700       1.23889100
Cl      -2.28580400      -0.31734200       2.46686100
O        0.34420700      -0.76725500      -0.69953600
O        0.23863200       0.45414100       1.57078500
C        2.49649800      -0.14806100       0.06682500
C        1.99437100       1.22614400       0.15747600
C        0.25622100       2.68221900       0.92191700
C        2.05104300      -2.35077100      -0.72465900
C        3.38045600      -2.75848800      -0.49106300
C        3.80115500      -0.48188800       0.31544800
C        4.28206700      -1.79108700       0.06258500
C        2.64280600       2.28978300      -0.41415100
C        2.11678500       3.60406300      -0.33062100
C        0.87189100       3.81055000       0.35126700
H        4.46740900       0.27618200       0.70994400
H        3.55687000       2.10601300      -0.96635300
N        1.61438300      -1.11817400      -0.42204900
N        0.80241200       1.45891600       0.83907900
F        1.18356300      -3.15914900      -1.28827600
C        3.82355900      -4.07127500      -0.78338800
C        5.61924100      -2.17423100       0.31552000
C        6.03383500      -3.46159300       0.02828300
H        7.06129500      -3.75283800       0.22399900
C        5.13648300      -4.40957200      -0.52036900
H        5.48579200      -5.41435300      -0.73598700
H        6.30784400      -1.44603700       0.73323600
F       -0.86833600       2.77187100       1.58782900
C        2.75938500       4.71838000      -0.91606000
C        0.30055900       5.10341000       0.44253500
C        2.18737800       5.97350600      -0.82036200
H        2.68437300       6.82640900      -1.27237300
C        0.95913900       6.16673900      -0.14132100
H        3.69967800       4.57180100      -1.43814800
H        0.53159600       7.16241400      -0.08121100
H        3.13170400      -4.79364200      -1.20101600
H       -0.64104800       5.24104200       0.96129600
