57
Properties=species:S:1:pos:R:3 pbc="F F F"
Si       0.76100800      -0.56804000       0.39069300
O        2.34967300      -0.66960600      -0.11630400
C        3.54272300      -1.00167400       0.59670700
C        4.72871100      -0.81478000      -0.32589100
H        3.65001700      -0.33800600       1.46254500
C        4.70332000      -1.30586700      -1.63850500
C        5.88775800      -0.19327500       0.15259300
C        5.82325400      -1.17098200      -2.46213200
H        3.80056500      -1.78091500      -2.01236100
C        7.01247900      -0.06285000      -0.66866800
H        5.90692700       0.19174800       1.16993100
C        6.98174300      -0.55117300      -1.97840500
H        5.79376600      -1.54955400      -3.48073900
H        7.90669600       0.42422300      -0.28830600
H        7.85292600      -0.44684200      -2.61995300
C        3.49540100      -2.47157100       1.10685700
C        2.41394600      -2.68770800       2.06108700
H        4.46282700      -2.70079500       1.57000700
H        3.37305600      -3.13467500       0.24185500
C        1.47946500      -2.79732100       2.82297700
H        0.66105400      -2.90707100       3.49996900
Cl       1.21553800       0.74895600       2.08664000
Cl       0.26232000      -2.44100400      -0.65697300
O        0.17141800       0.52696400      -0.88123400
O       -0.88952000      -0.60623300       1.27531000
C       -1.92622300       1.44994200      -0.23729100
C       -2.52656900       0.10738100      -0.28758800
C       -2.59589300      -2.07815300       0.67512600
C        0.04234400       2.79868000      -0.44086800
C       -0.66858200       3.98118000      -0.16452800
C       -2.66977500       2.56925400       0.03102300
C       -2.07839100       3.85813100       0.06877800
C       -3.65022800      -0.16667600      -1.02057600
C       -4.29042400      -1.43023800      -0.93897800
C       -3.75544100      -2.41888200      -0.04840500
H       -3.72658600       2.45363700       0.24163300
H       -4.04594300       0.60334600      -1.67228300
N       -0.56150600       1.60190100      -0.48619200
N       -1.99851900      -0.88689900       0.54016000
F        1.32758800       2.80930100      -0.69498300
C       -0.03413700       5.24638100      -0.11678900
C       -2.82284100       5.02665200       0.34538100
C       -2.18870100       6.25494000       0.38654400
H       -2.76453400       7.15033000       0.59976000
C       -0.79566400       6.36497200       0.15689200
H       -0.32198800       7.34052400       0.19799200
H       -3.89020900       4.94279500       0.52368500
F       -2.05749000      -2.90961500       1.53469100
C       -5.44246400      -1.74977800      -1.69228000
C       -4.36941700      -3.68865400       0.07451500
C       -6.02824300      -2.99589100      -1.56250400
H       -6.91222900      -3.23787200      -2.14459200
C       -5.49228900      -3.96492300      -0.68032700
H       -5.85542000      -1.00680000      -2.36747900
H       -5.96933100      -4.93632600      -0.59856500
H        1.03291400       5.32254700      -0.29168300
H       -3.95066900      -4.42680200       0.74875000
