57
Properties=species:S:1:pos:R:3 pbc="F F F"
Si       1.01630300       0.28948300       0.82721000
O        1.87121600      -0.36367400      -0.41650100
C        3.25650400      -0.75571400      -0.50530800
C        4.16877300       0.45121900      -0.51759100
H        3.50815000      -1.40236700       0.33987200
C        3.86931000       1.56122500      -1.31946900
C        5.33903600       0.45174800       0.24885000
C        4.73037800       2.65993400      -1.35060300
H        2.95519000       1.56610100      -1.90677000
C        6.20579100       1.54812500       0.21407000
H        5.56376100      -0.40356300       0.88154500
C        5.90226600       2.65461300      -0.58526800
H        4.48854500       3.51957000      -1.97037900
H        7.11008800       1.54236700       0.81696900
H        6.57187000       3.51042900      -0.60799100
C        3.39779000      -1.56008400      -1.81968800
C        2.58286200      -2.77285400      -1.85488800
H        4.45769300      -1.81897500      -1.93576100
H        3.13187500      -0.90190000      -2.65660400
C        1.90531900      -3.77479200      -1.87581200
H        1.31149100      -4.66190400      -1.89803400
Cl       0.96528200       2.30515800       1.46771200
Cl       2.30882400      -0.30413900       2.51548300
O       -0.18628100       0.70719000      -0.64126000
O       -0.29235900      -0.67449300       1.55658300
C       -2.37519100       0.51040300       0.16683400
C       -2.16747500      -0.94382300       0.14843200
C       -0.78593200      -2.81820900       0.76180300
C       -1.56411300       2.59915200      -0.68934500
C       -2.78800800       3.24082400      -0.35304000
C       -3.57086200       1.07964800       0.51076600
C       -3.80401200       2.45888500       0.29602300
C       -3.03866500      -1.77613400      -0.50244900
C       -2.81841100      -3.17189000      -0.55510700
C       -1.65356900      -3.71625700       0.08496300
H       -4.34640600       0.45496800       0.93949800
C       -5.02321700       3.07279600       0.66585500
H       -3.89118100      -1.34137400      -1.01063900
C       -3.70468700      -4.03742700      -1.23673300
C       -1.41727800      -5.11333100       0.02601900
Cl       0.59846200      -3.34828700       1.60168100
N       -1.35852200       1.30370900      -0.36606900
N       -1.05665200      -1.49308700       0.77636400
Cl      -0.32405300       3.39953600      -1.55598500
C       -3.03372900       4.61173200      -0.61751200
C       -5.23218800       4.41257300       0.40473200
C       -4.23354500       5.18061800      -0.23861300
H       -2.27573000       5.21244700      -1.10547500
H       -5.78543400       2.47243900       1.15300000
H       -6.16814800       4.88175200       0.69204600
H       -4.41102600       6.23299200      -0.43674300
C       -3.44973500      -5.39377100      -1.28036400
C       -2.30361300      -5.93002100      -0.64639900
H       -0.54258700      -5.53501100       0.50615500
H       -4.57970000      -3.61583300      -1.72177900
H       -4.13113500      -6.05670600      -1.80459700
H       -2.11749000      -6.99841900      -0.68999900
