57
Properties=species:S:1:pos:R:3 pbc="F F F"
Si       0.58556200      -1.17500000      -0.21998500
O        1.84124300      -0.13279300      -0.02945000
C        3.11081600      -0.08793100       0.65536100
C        4.01573500      -1.24570200       0.26338400
H        3.56234900       0.83067800       0.26011500
C        4.76310000      -1.98034800       1.19080100
C        4.13873000      -1.55158000      -1.10083400
C        5.60954300      -3.00919800       0.76441200
H        4.68355600      -1.77145300       2.25256300
C        4.97712500      -2.58158600      -1.52779200
H        3.56038900      -0.98747100      -1.82726500
C        5.71803900      -3.31508700      -0.59417700
H        6.17767900      -3.57491200       1.49825100
H        5.05436400      -2.81037500      -2.58757800
H        6.37257300      -4.11764800      -0.92375900
C        2.91523100       0.11976200       2.17105100
C        2.11983300       1.30826600       2.47097100
H        3.90760700       0.23220500       2.62508100
H        2.45156800      -0.77088900       2.60874800
C        1.47551300       2.30324500       2.71119800
H        0.91388000       3.18287300       2.93424900
Cl       0.33268300      -2.44007100      -1.88698800
Cl       1.23033300      -2.77207700       1.14512000
O       -0.80759900      -0.92754500       0.87701400
O       -0.19670700       0.15317900      -1.37691300
C       -2.40104100       0.62809200       0.07450700
C       -1.35044000       1.65053400      -0.00115100
C        0.64056600       2.33720500      -1.14711100
C       -2.97691400      -1.67776400       0.45145300
C       -4.33979700      -1.41761800       0.14836000
C       -3.70808600       0.92783300      -0.20501700
C       -4.71195300      -0.06754800      -0.17257700
C       -1.46750400       2.87447300       0.59844900
C       -0.50147200       3.88244700       0.37504700
C        0.57772000       3.61994600      -0.53644700
H       -3.95775300       1.94395500      -0.48842200
C       -6.06179900       0.22728100      -0.47385500
H       -2.30981500       3.05693100       1.25521100
C       -0.57644700       5.13885500       1.02055500
C        1.54229000       4.63099100      -0.77436500
Cl       1.81789500       1.94760100      -2.32557300
N       -2.06743000      -0.67736900       0.41768400
N       -0.26793900       1.38998100      -0.83631700
Cl      -2.42215000      -3.22923800       0.89325800
C       -5.33409200      -2.42895900       0.15889900
C       -7.00981300      -0.77650400      -0.45482000
C       -6.64251700      -2.10592200      -0.13767200
H       -5.06485800      -3.45068000       0.39746800
H       -6.33311700       1.24880300      -0.72132500
H       -8.04555500      -0.54838900      -0.68682300
H       -7.39927300      -2.88393400      -0.12962800
C        0.38339000       6.10120900       0.77850600
C        1.44371200       5.84367900      -0.12186700
H        2.36216700       4.44590600      -1.45778200
H       -1.39576200       5.32778400       1.70744900
H        0.32629000       7.06256900       1.27971100
H        2.19216900       6.60896300      -0.30177500
