57
Properties=species:S:1:pos:R:3 pbc="F F F"
Si      -0.30588800       1.68275500       1.12117000
O        0.67054000       2.50579100       0.08185200
C        0.85137400       2.44886300      -1.35997400
C        1.82402000       1.34987000      -1.72721600
H       -0.10940400       2.26728500      -1.84576700
C        3.13422200       1.35579700      -1.22637700
C        1.42524300       0.31684300      -2.58394000
C        4.02935600       0.34484400      -1.58012300
H        3.44806200       2.14680100      -0.55126200
C        2.32045100      -0.69682400      -2.93923700
H        0.40732400       0.30680900      -2.96480000
C        3.62461200      -0.68407300      -2.43769000
H        5.04028100       0.35479900      -1.18218000
H        1.99816000      -1.49666600      -3.60072900
H        4.31972500      -1.47520600      -2.70399700
C        1.36480600       3.83989600      -1.79257900
C        0.38525900       4.89932500      -1.56095800
H        1.61254500       3.78577800      -2.86028600
H        2.29532300       4.05751800      -1.25409700
C       -0.44746800       5.75448900      -1.36548500
H       -1.17464700       6.51655300      -1.18858100
Cl       0.47038700       2.79065900       2.84838000
Cl      -2.32316100       2.11704400       1.61173000
O       -0.87726000       0.62019700      -0.38764900
O        0.20493900       0.16062600       1.90886300
C       -1.34725200      -1.54183300       0.35384200
C        0.10449600      -1.72464600       0.48693600
C        2.20465200      -0.90430100       1.32742800
C       -3.04902300      -0.19545200      -0.67447000
C       -4.02243300      -1.20623200      -0.44751700
C       -2.24561800      -2.54516500       0.59476700
C       -3.60724900      -2.39981300       0.23731900
C        0.73804500      -2.78094700      -0.11202800
C        2.13954200      -2.93955500      -0.02698600
C        2.90295300      -1.97521100       0.71211500
H       -1.89713100      -3.46427900       1.05135500
C       -4.55548400      -3.41603800       0.49775400
H        0.14676300      -3.48168000      -0.68928600
C        2.80500200      -4.00858400      -0.66937400
C        4.31065700      -2.11933900       0.79408000
Cl       2.99781800       0.27466900       2.26826900
N       -1.78695000      -0.34876500      -0.21803600
N        0.86144500      -0.80177700       1.19811300
Cl      -3.39127500       1.22115600      -1.57115900
C       -5.37333000      -1.07686400      -0.85700400
C       -5.86739300      -3.25994300       0.09570300
C       -6.27378000      -2.08732100      -0.58356500
H       -5.69760200      -0.18151000      -1.37363300
H       -4.23118500      -4.31474700       1.01341700
H       -6.59346900      -4.04110500       0.29877100
H       -7.30844600      -1.97844400      -0.89317200
C        4.17771100      -4.12313000      -0.57697800
C        4.92884400      -3.17668100       0.15930800
H        4.89753200      -1.39590000       1.34621700
H        2.21860900      -4.72863600      -1.23150100
H        4.68787700      -4.94342100      -1.07237500
H        6.00751700      -3.27946100       0.22122600
