57
Properties=species:S:1:pos:R:3 pbc="F F F"
Si       0.05945600      -1.87074400       0.46148500
O       -1.55594000      -1.62156500       0.36931900
C       -2.67565600      -1.54394800      -0.53684600
C       -2.48368700      -0.45510500      -1.57134500
H       -3.51010100      -1.26074000       0.11337200
C       -1.43666800      -0.51103700      -2.50197000
C       -3.38332300       0.61671100      -1.61944500
C       -1.27707800       0.50525100      -3.44515100
H       -0.74347900      -1.34589400      -2.48790200
C       -3.23725400       1.62525200      -2.57574600
H       -4.19793500       0.66216400      -0.90088200
C       -2.17762900       1.57606700      -3.48508000
H       -0.45686300       0.45608500      -4.15658100
H       -3.94155900       2.45144800      -2.60054600
H       -2.05568100       2.36389700      -4.22373500
C       -3.04813100      -2.89629000      -1.18915100
C       -3.28307100      -3.95512900      -0.21199400
H       -3.96480600      -2.71369900      -1.76562700
H       -2.27322800      -3.19623100      -1.90026700
C       -3.48129800      -4.81471900       0.61546500
H       -3.64880100      -5.58177600       1.33953000
Cl       0.89739500      -2.94547100       2.06702700
Cl       0.24765600      -3.52814800      -0.97855100
O        1.11754600      -0.94960100      -0.64598400
O        0.17891600      -0.37927200       1.67833000
C        1.64790800       1.23552600       0.10282500
C        0.22442900       1.52407400       0.31491600
C       -1.68214100       1.04670800       1.69097200
C        3.35780700      -0.39490500      -0.35730900
C        4.37822400       0.57283600      -0.15941500
C        2.59920500       2.20498100       0.28170800
C        3.97671500       1.91846300       0.14411900
C       -0.39438800       2.62470800      -0.21340400
C       -1.70235100       2.97898200       0.18634000
C       -2.36499300       2.18414200       1.18192700
H        2.27802300       3.19864700       0.57063000
C        4.96431100       2.91359900       0.32859200
H        0.13603300       3.22847300      -0.94024400
C       -2.36447800       4.10242700      -0.36009400
C       -3.67274300       2.54235000       1.59504300
Cl      -2.34677600       0.05516600       2.91544400
N        2.05583300      -0.04833700      -0.24286600
N       -0.45446300       0.72673700       1.23231000
Cl       3.70259400      -2.01248400      -0.77872200
C        5.75880500       0.26663100      -0.26501800
C        6.30166200       2.58913500       0.21482600
C        6.69653800       1.26256700      -0.08103200
H        6.07324400      -0.74523700      -0.49009800
H        4.65105200       3.92696700       0.56081100
H        7.05875500       3.35428000       0.35617700
H        7.75209700       1.02367900      -0.16308700
C       -3.63918500       4.42638100       0.05668200
C       -4.29356500       3.64045500       1.03459200
H       -4.18510900       1.94845400       2.34220400
H       -1.85431000       4.69386900      -1.11379800
H       -4.14768600       5.28622000      -0.36845800
H       -5.29835300       3.90377300       1.34988500
