57
Properties=species:S:1:pos:R:3 pbc="F F F"
Si       0.17703400      -1.59416600       0.83805900
O       -0.69602600      -2.23616000      -0.39832500
C       -2.06181400      -2.65526100      -0.51532600
C       -2.95070100      -1.48903000      -0.90244300
H       -2.40729100      -3.08132700       0.43125900
C       -2.46330500      -0.42125700      -1.66859000
C       -4.29899400      -1.50256300      -0.52546100
C       -3.31410900       0.62233800      -2.04384100
H       -1.41778100      -0.40687400      -1.95992300
C       -5.15047000      -0.46139000      -0.90319900
H       -4.67808500      -2.32476500       0.07733800
C       -4.65871700       0.60562400      -1.66258300
H       -2.92490300       1.45144800      -2.62910100
H       -6.19312900      -0.47777200      -0.59706100
H       -5.31729400       1.42123900      -1.94796800
C       -2.10643300      -3.75703500      -1.60311200
C       -1.35026500      -4.95169500      -1.23441100
H       -3.15917600      -4.01527900      -1.77244000
H       -1.72057100      -3.33231000      -2.53887000
C       -0.72031800      -5.92968400      -0.90321100
H       -0.16460900      -6.79468700      -0.61383700
Cl      -0.89994400      -2.53122200       2.52199200
Cl       2.04229100      -2.37823700       1.44675100
O        0.98982000      -0.65517000      -0.64022400
O       -0.08615400      -0.01085400       1.63087900
C        1.81624100       1.38316600       0.14747400
C        0.41842300       1.83022000       0.22922900
C       -1.80270400       1.47302900       1.08755500
C        3.29309500      -0.25563800      -0.79536800
C        4.42248100       0.55983300      -0.50893700
C        2.86842800       2.20644300       0.44384800
C        4.19746800       1.81255100       0.15857700
C        0.01419400       2.99184900      -0.37403900
C       -1.32502300       3.43818700      -0.28749600
C       -2.26616700       2.66446500       0.47093900
H        2.67046400       3.17305400       0.89259400
C        5.30081100       2.63611500       0.48145600
H        0.74023300       3.55984800      -0.94400900
C       -1.75854300       4.61734000      -0.93575100
C       -3.61103300       3.10163500       0.56535000
Cl      -2.80735100       0.50797000       2.06692000
N        2.05776800       0.12987300      -0.40927500
N       -0.51583400       1.08113900       0.93650100
Cl       3.42240700      -1.71928400      -1.67129000
C        5.74756900       0.18098400      -0.84096000
C        6.58210100       2.23759000       0.15518700
C        6.80247900       1.00749600      -0.50777200
H        5.93058400      -0.76062200      -1.34432400
H        5.11949000       3.58121600       0.98408100
H        7.42754900       2.87065100       0.40653300
H        7.81527900       0.70695000      -0.75728000
C       -3.07625200       5.01743300      -0.83366200
C       -4.00112400       4.25725000      -0.07940900
H       -4.33022300       2.52097000       1.12906600
H       -1.04129600       5.19480600      -1.51017300
H       -3.40814800       5.92160500      -1.33467900
H       -5.03398000       4.58372000      -0.01185500
