63
Properties=species:S:1:pos:R:3 pbc="F F F"
Si       0.35692200      -1.71792200       1.06145300
O       -0.77186800      -2.46922900       0.12118000
C       -1.09023000      -2.37461000      -1.29313500
C       -2.10727300      -1.28002300      -1.52913500
H       -0.18571700      -2.15975600      -1.86517200
C       -3.38723700      -1.35191700      -0.95873200
C       -1.78244400      -0.18495100      -2.33850500
C       -4.32815700      -0.35204800      -1.20690800
H       -3.64544200      -2.19152100      -0.31942900
C       -2.72393300       0.81855400      -2.58757000
H       -0.78697400      -0.12121800      -2.76988300
C       -4.00008600       0.73339500      -2.02669700
H       -5.31611900      -0.41671500      -0.75935600
H       -2.45977400       1.66598200      -3.21433800
H       -4.73130800       1.51415900      -2.21413800
C       -1.61882200      -3.76093700      -1.72212900
C       -0.59673500      -4.80152500      -1.63314200
H       -1.97842500      -3.67731900      -2.75561800
H       -2.48216600      -4.02197700      -1.09805200
C        0.27289100      -5.63919200      -1.56158900
H        1.03134500      -6.38799000      -1.49175900
Cl      -0.33889700      -2.81991500       2.85426700
Cl       2.36803400      -2.33160700       1.38548700
O        0.87911200      -0.69918000      -0.44734400
O       -0.03948000      -0.20504800       1.90048000
C        1.45847100       1.44673700       0.25315500
C        0.02274400       1.67121500       0.46825200
C       -2.04707400       0.87936900       1.45342800
C        3.08118600       0.00944100      -0.81510300
C        4.07293100       1.01726700      -0.62911600
C        2.39007400       2.42984600       0.44561400
C        3.73202700       2.23867700       0.03924800
C       -0.61832100       2.74678600      -0.08544900
C       -2.00436700       2.94411900       0.10695800
C       -2.73701200       1.99047500       0.89132900
H        2.08243900       3.36201700       0.90575300
C        4.72360300       3.22677300       0.24446500
H       -0.05104900       3.43274400      -0.70354100
C       -2.67522700       4.04675600      -0.47070700
C       -4.12937700       2.19423900       1.07953300
C       -2.66262900      -0.17555100       2.30829900
N        1.84801200       0.23739800      -0.32194800
N       -0.72061700       0.77929800       1.22514500
C        3.36197100      -1.24635100      -1.57699900
C        5.40404200       0.83050000      -1.08217600
C        6.01353400       3.01329000      -0.20108600
C        6.35231100       1.81158600      -0.86680700
H        5.68080000      -0.08665800      -1.58843800
H        4.45246400       4.14806400       0.75165700
H        6.77485300       3.77115500      -0.04247600
H        7.37054900       1.65808300      -1.21072000
C       -4.03009300       4.21484300      -0.26804400
C       -4.75516500       3.28627200       0.51408200
H       -4.71605100       1.49488700       1.66003500
H       -2.10678100       4.75220500      -1.06908700
H       -4.54495200       5.06242500      -0.71027600
H       -5.82069500       3.42838900       0.66486200
H        2.47373800      -1.86388200      -1.68238200
H        3.74300600      -0.97302500      -2.56749700
H        4.13867400      -1.82504300      -1.06757400
H       -2.48630900      -1.16099300       1.86793300
H       -2.17985100      -0.18113100       3.29141200
H       -3.73199500      -0.02352900       2.42703200
