63
Properties=species:S:1:pos:R:3 pbc="F F F"
Si      -0.33832600      -1.00152600      -0.32024700
O       -1.71289100      -1.79246400       0.18643000
C       -2.84800700      -2.35586800      -0.47511100
C       -4.04356600      -2.27986700       0.45079000
H       -3.06919300      -1.79770500      -1.38985200
C       -3.95769500      -2.74093100       1.77160100
C       -5.25718100      -1.76540500      -0.01784400
C       -5.07111300      -2.68356200       2.61222500
H       -3.01251700      -3.12876400       2.14151900
C       -6.37596600      -1.71186400       0.82005000
H       -5.32292200      -1.39907000      -1.04004800
C       -6.28437600      -2.17021000       2.13747900
H       -4.99426900      -3.03824100       3.63695000
H       -7.31328000      -1.30733400       0.44669900
H       -7.15073300      -2.12526100       2.79237200
C       -2.54141600      -3.82976000      -0.85604200
C       -1.41937600      -3.94551600      -1.78267900
H       -3.44710100      -4.26251200      -1.29965600
H       -2.32903600      -4.38667600       0.06527200
C       -0.47457000      -3.98677200      -2.53720300
H        0.36034800      -4.02989200      -3.20134900
Cl      -1.09818100      -0.28597800      -2.20482500
Cl       0.90163500      -2.43115500       0.72505400
O       -0.42655100       0.33723700       0.86080700
O        1.25576900      -0.22986000      -1.07787300
C        1.03582600       2.05170600       0.26894400
C        2.16459600       1.14242400       0.54449600
C        3.41604700      -0.74035500      -0.26962500
C       -1.34506500       2.39680100       0.17759400
C       -1.15075400       3.72710200      -0.29187600
C        1.26451600       3.34587600      -0.11840900
C        0.19849500       4.21426600      -0.42454500
C        3.14480500       1.45245600       1.44705900
C        4.30599900       0.65729800       1.55078000
C        4.46981900      -0.45213000       0.64607600
H        2.28898500       3.68364200      -0.22613700
H        3.02189700       2.32498200       2.07895300
N       -0.27308100       1.61005400       0.40741100
N        2.30511700       0.02139100      -0.26512900
C        0.43988400       5.53285300      -0.87505800
C       -0.61832800       6.35276100      -1.20394100
H       -0.43665900       7.36385300      -1.55465100
C       -1.94668800       5.87638900      -1.09517800
H       -2.77185800       6.52499200      -1.37160400
H        1.46582500       5.87597300      -0.96346600
C        5.31161600       0.95775300       2.49884200
C        6.45729100       0.19237900       2.55654200
H        7.22994700       0.42031100       3.28414800
C        6.63195200      -0.89074600       1.66367700
H        5.16318200       1.79772100       3.17017000
H        7.53855100      -1.48542500       1.71404500
C        3.60737300      -1.87435300      -1.31029000
C       -2.79159100       1.90524400       0.46234000
C       -2.21763600       4.60055600      -0.64805700
H       -3.24617600       4.27633000      -0.58853000
C        5.67111200      -1.21105000       0.72711800
H        5.84601900      -2.04802300       0.06708200
F       -3.48154500       1.87536100      -0.70458200
F       -3.38787100       2.80831800       1.28475000
F       -2.91268400       0.71567700       1.04167000
F        2.61168000      -2.06846800      -2.17551500
F        4.71630500      -1.57092000      -2.04229500
F        3.83700000      -3.04781000      -0.67644800
