63
Properties=species:S:1:pos:R:3 pbc="F F F"
Si      -0.11077800      -1.75995200      -0.46460300
O        1.50216400      -1.58623700      -0.20681200
C        2.52679200      -1.65224800       0.81416600
C        2.32123300      -0.59232400       1.87508600
H        3.44143800      -1.41791500       0.26417600
C        1.16763500      -0.56651200       2.67059900
C        3.31697700       0.36925900       2.08533200
C        1.00107500       0.42559700       3.63876300
H        0.39922500      -1.32000200       2.53501000
C        3.16154800       1.35111300       3.06705500
H        4.21567000       0.34833500       1.47421300
C        1.99769600       1.38741900       3.83922100
H        0.09890300       0.44071300       4.24456500
H        3.94084800       2.09214400       3.21770300
H        1.86925100       2.15611700       4.59660600
C        2.72532700      -3.05555600       1.43273000
C        2.96762300      -4.08974500       0.43137100
H        3.59735500      -2.96890300       2.09460900
H        1.86940600      -3.31902400       2.05966900
C        3.17298200      -4.92452300      -0.41927500
H        3.34644000      -5.66965400      -1.16453400
Cl      -0.78549500      -2.75404700      -2.18944600
Cl      -0.52831100      -3.41548200       0.90289000
O       -1.25772100      -0.81052100       0.55941700
O       -0.03275600      -0.22424900      -1.62016900
C       -1.49595100       1.42693600      -0.14652000
C       -0.03763900       1.59750200      -0.20269300
C        1.95904100       1.01807800      -1.39694300
C       -3.41373900       0.00624100       0.20738200
C       -4.29914500       1.07329300      -0.11933800
C       -2.31565600       2.50077900      -0.38206000
C       -3.71490800       2.36895800      -0.38615900
C        0.60380700       2.61076400       0.45905800
C        1.96852800       2.86622600       0.22765000
C        2.66926900       2.06602400      -0.74320100
H       -1.86175300       3.45816200      -0.61003200
H        0.04473700       3.21707900       1.16224000
N       -2.07238500       0.20331500       0.14706600
N        0.66510600       0.80095500      -1.09180600
C       -4.53419700       3.48503200      -0.67748900
C       -5.90293900       3.34167700      -0.73055100
H       -6.53509900       4.19494900      -0.95539500
C       -6.48536600       2.07183100      -0.50958000
H       -7.56235500       1.95785900      -0.58169400
H       -4.06124600       4.44358600      -0.86706900
C        2.64087200       3.90133300       0.91828000
C        3.97272700       4.14715800       0.66710300
H        4.49200700       4.93872600       1.19822100
C        4.67075000       3.36330700      -0.28174200
H        2.08883400       4.48711800       1.64640000
H        5.72145500       3.56032600      -0.46973500
C        2.66887500       0.18966800      -2.49582200
C       -3.84356500      -1.39960200       0.71304000
C       -5.71861500       0.96509300      -0.21127900
H       -6.21635800       0.02080100      -0.07254500
C        4.04411300       2.35006000      -0.97665700
H        4.61666100       1.77807200      -1.69219100
F       -3.42622400      -2.35559800      -0.13814400
F       -5.17928900      -1.53070800       0.82717700
F       -3.33776400      -1.63047200       1.94213900
F        1.94155700      -0.73444200      -3.11803100
F        3.10671300       1.06035600      -3.44877800
F        3.75797500      -0.42647200      -1.97056200
