63
Properties=species:S:1:pos:R:3 pbc="F F F"
Si       0.24631900      -1.79746100       0.30648700
O       -1.36792000      -1.62606700      -0.00215900
C       -2.18024300      -1.96886000      -1.15828600
C       -2.51249400      -0.68057500      -1.88669800
H       -1.59250300      -2.60283200      -1.82554400
C       -1.53231200      -0.13577700      -2.73099200
C       -3.72804600      -0.00203700      -1.73498700
C       -1.76004800       1.06204300      -3.41028600
H       -0.58718000      -0.65929500      -2.85309800
C       -3.96215800       1.19241900      -2.42131600
H       -4.50120000      -0.39622300      -1.08362800
C       -2.98052100       1.72792200      -3.25845300
H       -0.99189400       1.46960500      -4.06215400
H       -4.90933400       1.70786000      -2.29342200
H       -3.16475800       2.65867100      -3.78765300
C       -3.40202900      -2.77250500      -0.67975900
C       -3.03709800      -4.03879300      -0.04898000
H       -4.03750600      -2.95957500      -1.55487100
H       -3.98890500      -2.17453900       0.02405600
C       -2.72827500      -5.08185200       0.47845500
H       -2.44846300      -6.00234500       0.94213800
Cl       0.96666400      -2.82704900       1.99179300
Cl       0.69189000      -3.40177000      -1.12026700
O        1.35570300      -0.77810000      -0.68966300
O        0.10063200      -0.32259000       1.51179000
C        1.56018700       1.42228900       0.13039300
C        0.09913300       1.57131000       0.18800100
C       -1.90032000       0.91388800       1.33524200
C        3.50187400       0.05413300      -0.29788000
C        4.37037000       1.12005800       0.07519200
C        2.36303300       2.49494100       0.42446200
C        3.76422100       2.38861700       0.41386400
C       -0.54624500       2.61970100      -0.41397900
C       -1.90760500       2.86863000      -0.15755700
C       -2.60771400       2.00982900       0.76166400
H        1.89429300       3.43088000       0.70551900
H        0.01110200       3.26862500      -1.07963400
N        2.15706700       0.22587100      -0.22781000
N       -0.60490400       0.72001000       1.02291600
C        4.56457300       3.50374800       0.75721300
C        5.93614100       3.38484300       0.79259200
H        6.55373900       4.23738200       1.05714100
C        6.54067600       2.14017800       0.49983800
H        7.62033400       2.04383600       0.55592000
H        4.07492800       4.44193200       0.99901000
C       -2.57048000       3.96494600      -0.75757500
C       -3.88853300       4.22480500      -0.45437500
H       -4.39861400       5.06798500      -0.90942300
C       -4.58485200       3.38577100       0.44646100
H       -2.01822500       4.59201700      -1.45011500
H       -5.62565100       3.59281300       0.67484100
C       -2.61300700       0.01532400       2.37500600
C        3.95553900      -1.32604500      -0.85146600
C        5.79279200       1.03584800       0.14963800
H        6.30863000       0.11153100      -0.04526400
C       -3.97144500       2.30374900       1.04233600
H       -4.54440600       1.69078700       1.72249100
F        3.55453900      -2.31430500      -0.02919600
F        5.29329000      -1.43205000      -0.96799300
F        3.45452700      -1.52758200      -2.08689900
F       -1.90629300      -0.98016600       2.90315200
F       -3.01046200       0.81484000       3.40465400
F       -3.72797900      -0.52330900       1.81904100
