63
Properties=species:S:1:pos:R:3 pbc="F F F"
Si       0.11917500       1.01723300       0.76740700
O        0.91215600       1.64015200      -0.52937800
C        1.78075900       2.78715600      -0.63577600
C        1.01488000       4.08328900      -0.48318700
H        2.55801700       2.72435800       0.13045900
C       -0.23873500       4.25060600      -1.08585600
C        1.58067800       5.14319700       0.23364200
C       -0.92122200       5.46320100      -0.96496800
H       -0.68336400       3.42631300      -1.63498100
C        0.90325500       6.36017100       0.34879500
H        2.54792400       5.00874400       0.71220700
C       -0.35076900       6.52180900      -0.24939600
H       -1.89761500       5.58168800      -1.42774300
H        1.34787500       7.17578000       0.91302600
H       -0.88295000       7.46464400      -0.15387500
C        2.43420200       2.70810700      -2.03640600
C        3.25253300       1.51397600      -2.23982400
H        3.04943400       3.60756300      -2.16405800
H        1.63619300       2.75233700      -2.78865600
C        3.93127900       0.52518300      -2.39724300
H        4.53556600      -0.34335400      -2.54017900
Cl      -1.79277500       1.60910000       1.46853800
Cl       1.13196800       2.05056500       2.41045800
O       -0.73031100      -0.01554300      -0.63849500
O        0.70039400      -0.52715500       1.46677100
C       -1.25426900      -2.07651200       0.26044800
C        0.17797200      -2.38446500       0.12746900
C        2.46761300      -1.79469000       0.59154300
C       -3.00197800      -0.62276200      -0.50726100
C       -3.98657900      -1.53712500      -0.02963100
C       -2.16015100      -2.98144800       0.74176000
C       -3.54480300      -2.72753000       0.65147600
C        0.58479700      -3.49613300      -0.56512200
C        1.94894700      -3.75014100      -0.79762600
C        2.93332400      -2.84907700      -0.24300200
H       -1.80025700      -3.90165000       1.18790900
H       -0.16918700      -4.14839800      -0.99040000
N       -1.69486400      -0.88273800      -0.29756900
N        1.13715500      -1.55813700       0.68229600
C       -4.48825400      -3.63967600       1.17907800
C       -5.83796400      -3.39476500       1.03968600
H       -6.56431900      -4.09161400       1.44613900
C       -6.28077800      -2.23540600       0.36086900
H       -7.34525600      -2.05243600       0.25307700
H       -4.12776500      -4.52814200       1.68813300
C        2.34891900      -4.84419900      -1.60052100
C        3.68168400      -5.03318700      -1.89403300
H        3.99203100      -5.86644500      -2.51662100
C        4.64813300      -4.12169500      -1.40615100
H        1.58588200      -5.50931600      -1.99261900
H        5.69073400      -4.25109700      -1.67909900
C        3.37846700      -0.91153500       1.48847100
C       -3.44942500       0.60248300      -1.34495900
C       -5.38715100      -1.32703300      -0.16842400
H       -5.77091400      -0.45458600      -0.67698700
C        4.29742000      -3.06113900      -0.59787300
H        5.06756500      -2.37916800      -0.27542000
F       -4.28310800       1.38610000      -0.62187300
F       -4.14926100       0.12731500      -2.41404000
F       -2.47935400       1.37850800      -1.83117200
F        2.92398900      -0.88549900       2.75617100
F        4.63679700      -1.39205800       1.55845700
F        3.44705100       0.34249300       1.00611400
