63
Properties=species:S:1:pos:R:3 pbc="F F F"
Si      -0.21439000       1.44375900       0.86955800
O        0.77481500       1.82085500      -0.37817600
C        2.01657000       2.52253800      -0.53579000
C        3.03833400       1.58617800      -1.14947000
H        2.37574800       2.88139700       0.43236600
C        2.66060100       0.61797100      -2.09022000
C        4.38858500       1.71897700      -0.80642700
C        3.62223200      -0.21019500      -2.67291400
H        1.61308100       0.51012600      -2.35429500
C        5.35259700       0.89403100      -1.39277300
H        4.68286500       2.46168700      -0.06841400
C        4.97047600      -0.07375500      -2.32665300
H        3.31971400      -0.96461500      -3.39435500
H        6.39749400       1.00111400      -1.11372700
H        5.71693200      -0.72359000      -2.77534200
C        1.75888800       3.73846600      -1.45984800
C        0.79317400       4.67753400      -0.89483800
H        2.72010600       4.23772900      -1.63452000
H        1.40412200       3.36413000      -2.42881800
C       -0.01853900       5.42375600      -0.39799100
H       -0.73273300       6.08663500       0.03921700
Cl       0.81270400       2.47339300       2.49769400
Cl      -2.09833800       2.23127400       1.40703400
O       -1.08862800       0.48853100      -0.61866400
O        0.02195700      -0.14333500       1.67226700
C       -1.68925600      -1.59788100       0.13181900
C       -0.24147800      -1.87496100       0.12113800
C        1.91648700      -1.40827800       1.07691400
C       -3.38049600      -0.07085900      -0.61796900
C       -4.39611500      -1.00622600      -0.25651000
C       -2.62145300      -2.53572800       0.47536000
C       -3.99880700      -2.26032500       0.33072800
C        0.29476600      -2.85786300      -0.66955900
C        1.68801500      -3.06926200      -0.71658600
C        2.53473500      -2.30953700       0.17088200
H       -2.29106400      -3.49285700       0.86340600
H       -0.36779000      -3.43248100      -1.30676500
N       -2.08860500      -0.36134600      -0.36097600
N        0.59867000      -1.14182200       0.94154000
C       -4.97566400      -3.20423200       0.72444600
C       -6.31508900      -2.92702100       0.54850400
H       -7.06654300      -3.64854100       0.85369400
C       -6.71386000      -1.70075800      -0.03248700
H       -7.77027600      -1.49017400      -0.16632800
H       -4.64960400      -4.14140000       1.16485500
C        2.25887000      -3.99379600      -1.62086600
C        3.62873300      -4.14260300      -1.67940800
H        4.07066100      -4.84584600      -2.37830700
C        4.46681500      -3.36165500      -0.84864600
H        1.60290000      -4.56461500      -2.27051300
H        5.54434600      -3.45269000      -0.93980700
C        2.70298300      -0.78557300       2.26279500
C       -3.77130500       1.20982900      -1.39705800
C       -5.78643100      -0.76088200      -0.43322000
H       -6.13599200       0.16343000      -0.86999800
C        3.94437400      -2.47018000       0.06270200
H        4.61602300      -1.86506900       0.65393100
F       -4.61287900       1.96932300      -0.65542400
F       -4.44659400       0.81714700      -2.51507000
F       -2.76816700       1.98726400      -1.80572000
F        1.93716900      -0.49184500       3.31962100
F        3.61977800      -1.68105000       2.70674800
F        3.35949500       0.32262500       1.86493800
