63
Properties=species:S:1:pos:R:3 pbc="F F F"
Si       0.20482500      -1.36496800      -0.22521500
O        1.63416400      -0.66309400       0.23164200
C        2.63423000      -1.09759400       1.17412300
C        3.66102500      -2.00902900       0.53400000
H        2.14989900      -1.62718300       1.99802700
C        3.92123300      -1.99246400      -0.84030700
C        4.39801300      -2.86758900       1.36100500
C        4.90598500      -2.82583500      -1.38037900
H        3.34960700      -1.33938200      -1.48901300
C        5.38521600      -3.69638500       0.82405400
H        4.18953600      -2.89268100       2.42858700
C        5.64212000      -3.67736900      -0.55156900
H        5.09505600      -2.81011900      -2.45072800
H        5.94525200      -4.36225300       1.47547200
H        6.40481700      -4.32641300      -0.97371400
C        3.30758700       0.16885300       1.75783000
C        2.38682100       0.99705800       2.53236100
H        4.12705200      -0.16967200       2.40367600
H        3.75885100       0.74517100       0.94412400
C        1.60998600       1.65187500       3.18839700
H        0.93751300       2.23700900       3.77550000
Cl      -0.08020700      -2.37576400      -2.05057800
Cl       0.32664800      -3.18749200       0.98264500
O       -1.21258100      -0.90169800       0.78881600
O       -0.13195500       0.18619600      -1.27620100
C       -2.19421300       1.13013800       0.10324200
C       -0.89555200       1.81635900       0.17163900
C        1.25455800       2.04826100      -0.86471300
C       -3.49745200      -0.88994200       0.30413500
C       -4.67596600      -0.20337300      -0.10536900
C       -3.32492000       1.84646300      -0.19698400
C       -4.57784700       1.22242200      -0.32287800
C       -0.71700700       2.96959400       0.88936000
C        0.48227800       3.70092200       0.78510500
C        1.49401000       3.24680400      -0.13431600
H       -3.22943500       2.90967700      -0.38478500
H       -1.51077000       3.31039000       1.54479800
N       -2.31351900      -0.22813200       0.34467700
N        0.11537300       1.36133600      -0.65835700
C       -5.71707400       1.97653600      -0.69065300
C       -6.92975000       1.34976500      -0.87421000
H       -7.80553000       1.92384800      -1.16009700
C       -7.02863700      -0.05201500      -0.71168100
H       -7.97833300      -0.54543800      -0.89272400
H       -5.60838000       3.04687000      -0.83594400
C        0.69110300       4.87076200       1.55215900
C        1.86774900       5.57755100       1.42727900
H        2.03292500       6.47226900       2.01932700
C        2.86617500       5.13859100       0.52581900
H       -0.08741700       5.19174000       2.23716500
H        3.79056900       5.70033900       0.43569500
C        2.26789000       1.60646600      -1.94943600
C       -3.44243900      -2.36779900       0.78255500
C       -5.94353700      -0.81555200      -0.33612800
H       -6.07233900      -1.88120400      -0.24961800
C        2.69055200       4.00801700      -0.24432400
H        3.47875900       3.70863700      -0.91956500
F       -2.71422500      -3.10863800      -0.07391600
F       -4.66227500      -2.93435500       0.86367500
F       -2.91403300      -2.44896500       2.02004800
F        1.95257100       0.52465600      -2.66111600
F        2.40086400       2.63605900      -2.82985900
F        3.48293200       1.38687500      -1.38742000
