63
Properties=species:S:1:pos:R:3 pbc="F F F"
Si       0.47569800      -0.83327400       0.45030500
O        2.00715100      -1.37503500       0.07641900
C        2.61894400      -2.66530900       0.04853600
C        3.94303100      -2.55386400      -0.67929800
H        1.97351200      -3.37167200      -0.48520300
C        4.85266700      -1.53659900      -0.35846000
C        4.28906600      -3.50495700      -1.64544600
C        6.09112900      -1.47174300      -0.99995700
H        4.57782900      -0.79151200       0.38205700
C        5.53154700      -3.44520900      -2.28571400
H        3.58168100      -4.29203000      -1.89772500
C        6.43468800      -2.42778100      -1.96382300
H        6.78927700      -0.67691900      -0.74953800
H        5.78992800      -4.18717700      -3.03688700
H        7.39899400      -2.37676600      -2.46282300
C        2.85241800      -3.20068000       1.48943600
C        1.60975000      -3.45827000       2.20908500
H        3.43826800      -4.12532200       1.41258900
H        3.46336500      -2.46976800       2.03344900
C        0.55233800      -3.64881100       2.76505200
H       -0.37977100      -3.81548000       3.25791100
Cl       1.10109100       0.05056500       2.31513100
Cl      -0.56420700      -2.45762800      -0.52540500
O        0.46530200       0.44476600      -0.79611700
O       -1.21801800      -0.20863500       1.12172900
C       -1.17398700       2.02889300      -0.31171100
C       -2.19746400       1.00167400      -0.58324100
C       -3.28660400      -0.96479200       0.26063600
C        1.15612300       2.62746000      -0.24750000
C        0.82305700       3.94358200       0.18030000
C       -1.53913500       3.30531000       0.02692000
C       -0.57006900       4.28834400       0.30858600
C       -3.16404300       1.17671500      -1.53472000
C       -4.22939600       0.25964200      -1.65616800
C       -4.31811800      -0.82627000      -0.71369100
H       -2.59398800       3.54045500       0.11267900
H       -3.10153400       2.03582800      -2.19304800
N        0.17375400       1.71955800      -0.42346000
N       -2.25570700      -0.09736700       0.26471500
C       -0.94881900       5.58638100       0.72265100
C        0.01785000       6.52257000       1.02179600
H       -0.26821700       7.51851900       1.34522300
C        1.38902100       6.18641500       0.91821000
H        2.14147400       6.92609500       1.17255800
H       -2.00528500       5.82064100       0.80690500
C       -5.21449500       0.41536300      -2.65877100
C       -6.26688000      -0.47250600      -2.73633500
H       -7.02308000      -0.35626800      -3.50642900
C       -6.36707700      -1.53620900      -1.80923900
H       -5.12590400       1.24217900      -3.35664000
H       -7.20032400      -2.22857300      -1.87667100
C       -3.42176100      -2.05511600       1.35401300
C        2.64079600       2.28413600      -0.55205900
C        1.79273800       4.93474100       0.50415300
H        2.84981000       4.71882200       0.44904300
C       -5.42522200      -1.71444500      -0.81707800
H       -5.54084600      -2.54147300      -0.13156600
F        3.34819200       2.32402100       0.60305600
F        3.13140100       3.24275900      -1.38237000
F        2.86860400       1.11470700      -1.14047700
F       -2.46585000      -2.08906000       2.28316400
F       -4.59900600      -1.83417400       2.00395200
F       -3.48849300      -3.28044700       0.78295300
