69
Properties=species:S:1:pos:R:3 pbc="F F F"
Si      -0.14545100       1.12322000       1.17828300
O        0.59193100       2.15741000       0.13642400
C        0.15944100       2.73716900      -1.11529700
C       -0.82476900       3.86405600      -0.88355500
H       -0.30523800       1.97169600      -1.74183400
C       -0.72056300       4.70891500       0.22883200
C       -1.83352000       4.09028300      -1.82801700
C       -1.62220900       5.76363400       0.39533600
H        0.05241400       4.52666000       0.96914100
C       -2.73174400       5.14780900      -1.66527700
H       -1.92068800       3.43051800      -2.68821000
C       -2.62814400       5.98692100      -0.55099200
H       -1.54055200       6.40955500       1.26570500
H       -3.51538500       5.31047700      -2.40065200
H       -3.33028800       6.80575300      -0.41769000
C        1.43298100       3.24789700      -1.82905800
C        2.30826400       2.16778900      -2.28004500
H        1.11343600       3.84393500      -2.69292000
H        1.96536400       3.92252600      -1.14671000
C        3.00262800       1.26049900      -2.67766600
H        3.62904400       0.47304800      -3.03354400
Cl      -2.14654400       1.08721300       1.85065300
Cl       0.56263800       2.16062400       2.96424000
O       -0.71325600       0.12563000      -0.42006800
O        0.78814100      -0.33086200       1.66265200
C       -0.44699200      -2.09724700       0.08015600
C        0.98457000      -1.79631700      -0.15033900
C        2.91845500      -0.66631700       0.73670500
C       -2.63747300      -1.23630200      -0.39675600
C       -3.20543200      -2.49548100      -0.04387000
C       -0.92479100      -3.32769900       0.46558300
C       -2.33982400      -3.53543400       0.45002600
C        1.70794400      -2.35290500      -1.18656200
C        3.07997900      -1.98356200      -1.33355900
C        3.69771600      -1.12094900      -0.35883300
N       -1.31216500      -1.06127800      -0.25385400
N        1.59771200      -0.92402500       0.73350000
C       -2.90376100      -4.76693800       0.85887400
C       -4.26532700      -4.97958900       0.78020300
H       -4.68471700      -5.92842500       1.10020300
C       -5.11388400      -3.96869200       0.28049900
H       -6.18338800      -4.14287400       0.21766400
H       -2.25785900      -5.55175400       1.23277900
C        3.85060700      -2.44107900      -2.42959200
C        5.16021900      -2.03616800      -2.58854300
H        5.73490700      -2.38854600      -3.43942800
C        5.74942400      -1.14692500      -1.66242300
H        3.40292700      -3.10520100      -3.15820700
H        6.76546100      -0.79900900      -1.81790000
C        3.55573300       0.07490000       1.94161400
C       -3.52471800      -0.13998500      -1.03004800
C       -4.60251900      -2.75473000      -0.12708200
H       -5.28361300      -2.00250500      -0.49735000
C        5.04403000      -0.70311800      -0.56649700
H        5.51291700      -0.00092700       0.10666700
F       -4.52387100       0.21382600      -0.18858200
F       -4.09660800      -0.67309200      -2.14846500
F       -2.89824300       0.97472000      -1.41324400
F        2.87458100      -0.05798600       3.08400300
F        4.78646100      -0.44338900       2.18605600
F        3.70061200       1.38638900       1.65606200
C        0.01167700      -4.43253500       0.86760000
H       -0.25434000      -4.79805800       1.86528700
H       -0.07911500      -5.27521000       0.17258000
H        1.05103900      -4.10370000       0.88800400
C        1.06549200      -3.28346400      -2.17754800
H        1.20204700      -2.89142400      -3.19101200
H        1.54920100      -4.26615500      -2.13651000
H       -0.00154400      -3.40982900      -2.00045600
