69
Properties=species:S:1:pos:R:3 pbc="F F F"
Si       0.11015800       1.81912900      -0.51425400
O       -1.52262100       1.68293500      -0.40840400
C       -2.64558600       1.85143200       0.48876800
C       -2.58658300       0.87786500       1.64680100
H       -3.50326000       1.58985400      -0.13469900
C       -1.51220100       0.86664500       2.54675000
C       -3.64896600      -0.01342600       1.84143800
C       -1.48887700      -0.04359400       3.60533300
H       -0.69359800       1.56765000       2.42601100
C       -3.63667400      -0.91211500       2.91118300
H       -4.48439200      -0.00609100       1.14582400
C       -2.55123800      -0.93476800       3.79127400
H       -0.64577600      -0.04954500       4.29114400
H       -4.46522500      -1.60056200       3.04719400
H       -2.53402500      -1.64003900       4.61792200
C       -2.87786800       3.30387000       0.96747800
C       -2.98065000       4.25498700      -0.13532300
H       -3.82162000       3.28308500       1.52865900
H       -2.09360600       3.60710400       1.66568900
C       -3.06572400       5.01925200      -1.06877200
H       -3.13403100       5.70208300      -1.88716300
Cl       1.03591500       2.69140400      -2.18963800
Cl       0.41221000       3.54790700       0.79531200
O        1.11295000       0.88642100       0.66082600
O        0.09103200       0.23638200      -1.62645800
C        1.51290200      -1.30215700      -0.09743900
C        0.04506800      -1.48375200      -0.09718200
C       -1.89781700      -1.01305400      -1.42349200
C        3.32764800       0.19915100       0.42806900
C        4.27203600      -0.75454400      -0.03893900
C        2.37984100      -2.30853600      -0.48092000
C        3.78286000      -2.04253600      -0.47299900
C       -0.62153400      -2.38382700       0.70287400
C       -1.99270200      -2.65492800       0.41236600
C       -2.63059800      -1.99597100      -0.69734400
N        2.01337900      -0.07471100       0.29994800
N       -0.62429700      -0.77102500      -1.07987400
C        4.71114000      -3.02162000      -0.90417300
C        6.06019600      -2.74192100      -0.95909500
H        6.75736900      -3.50263600      -1.29635600
C        6.53317200      -1.46035100      -0.60322000
H        7.58975500      -1.22924500      -0.69370700
H        4.35671700      -3.99897900      -1.20590000
C       -2.72605800      -3.59760400       1.17032100
C       -4.03429100      -3.89476200       0.85104200
H       -4.58403200      -4.62206400       1.44025200
C       -4.66314600      -3.24887600      -0.23451300
H       -2.25181700      -4.09155600       2.00915900
H       -5.69530800      -3.48097500      -0.47722100
C       -2.54705600      -0.29659200      -2.63010200
C        3.68261300       1.53874400       1.12760300
C        5.66940200      -0.48951200      -0.14698800
H        6.06628800       0.48398000       0.09096500
C       -3.98363600      -2.32135300      -0.99504900
H       -4.50017800      -1.84636000      -1.81622600
F        3.48497900       2.57285900       0.28775300
F        4.97136600       1.57374100       1.52867200
F        2.95267300       1.71893700       2.24582400
F       -1.78794100       0.57691300      -3.28843300
F       -2.91676500      -1.25556700      -3.52744100
F       -3.67292500       0.35107100      -2.23596200
C        0.07621400      -3.07387500       1.83960600
H       -0.48177200      -2.88838800       2.76351300
H        0.10095600      -4.15714100       1.67685200
H        1.09604300      -2.71222600       1.97387500
C        1.87398500      -3.64426000      -0.95500900
H        2.29164100      -3.86148500      -1.94344100
H        2.20872800      -4.43592900      -0.27505900
H        0.78863600      -3.68202200      -1.02817500
