69
Properties=species:S:1:pos:R:3 pbc="F F F"
Si       0.28194900      -1.44031000      -0.19568800
O        1.76858100      -0.80466900       0.15308700
C        2.80152600      -1.25087400       1.05246500
C        3.83470400      -2.10427700       0.34494900
H        2.35610900      -1.83225100       1.86326900
C        4.01748000      -2.06577800      -1.04150300
C        4.65462900      -2.93590800       1.12083700
C        5.01040400      -2.84544200      -1.64350600
H        3.38029600      -1.43666800      -1.65134600
C        5.64929700      -3.71118900       0.52162500
H        4.50603200      -2.98295400       2.19770600
C        5.83103600      -3.66675400      -0.86540600
H        5.13960700      -2.81100200      -2.72229200
H        6.27474600      -4.35538800       1.13412400
H        6.60068100      -4.27368000      -1.33494400
C        3.45066500       0.00945100       1.67762000
C        2.51857100       0.77719800       2.49988800
H        4.29160500      -0.33003000       2.29458200
H        3.86908700       0.63233600       0.88112900
C        1.73051000       1.38060000       3.19080200
H        1.04681900       1.91443400       3.81277000
Cl      -0.32539700      -2.45283900      -1.94887600
Cl       0.41848800      -3.28751500       0.97740500
O       -0.98154200      -0.83283000       0.93785400
O       -0.02218300       0.09554000      -1.28949600
C       -2.08935700       0.98997200      -0.03005000
C       -0.81203800       1.72149000       0.13565900
C        1.35545200       1.96252000      -0.86807200
C       -3.27250300      -1.04320900       0.48841800
C       -4.41654200      -0.56395900      -0.20262300
C       -3.19743100       1.55398100      -0.63265700
C       -4.37934600       0.76183400      -0.76429900
C       -0.65272900       2.83100500       0.93436500
C        0.58000900       3.54886500       0.85111200
C        1.58527900       3.13432500      -0.09329600
N       -2.14464000      -0.31021700       0.45233300
N        0.21638100       1.28103200      -0.68210700
C       -5.52249800       1.24911000      -1.44259700
C       -6.63925600       0.45466200      -1.60212300
H       -7.50513200       0.84054900      -2.13115600
C       -6.65502700      -0.86551900      -1.09926800
H       -7.52259000      -1.49651200      -1.26389400
H       -5.51583400       2.25153000      -1.85140700
C        0.82144400       4.68470100       1.65920500
C        2.00386200       5.38777500       1.55265500
H        2.17723000       6.25423800       2.18330400
C        2.98926900       4.98459000       0.62578300
H        0.06836600       5.00268200       2.36958200
H        3.91816700       5.54063300       0.54804100
C        2.36275100       1.54995800      -1.96667300
C       -3.33681500      -2.35370500       1.31767000
C       -5.57621800      -1.36660300      -0.40566100
H       -5.60746200      -2.38625800      -0.05009500
C        2.78804100       3.88892800      -0.18567400
H        3.56405500       3.60697600      -0.88207800
F       -3.27730700      -3.42630900       0.49640000
F       -4.52626500      -2.39152300       1.97525200
F       -2.39684700      -2.47019300       2.25706000
F        2.03286000       0.49290500      -2.71031300
F        2.49588100       2.60560000      -2.81764000
F        3.58200400       1.30534900      -1.42515900
C       -1.74438100       3.28196300       1.86382300
H       -1.35188800       3.35781700       2.88365100
H       -2.10140900       4.27718700       1.57503200
H       -2.58913800       2.59260900       1.87104300
C       -3.16206600       2.94843900      -1.19528000
H       -3.44922900       2.92237100      -2.25184200
H       -3.88847100       3.58198900      -0.67347000
H       -2.17779200       3.40836000      -1.11974600
