75
Properties=species:S:1:pos:R:3 pbc="F F F"
Si       0.49408500      -0.87808800       0.41824100
O        2.07430300      -1.25448300      -0.01041500
C        2.81868500      -2.46820200      -0.05637100
C        4.14098500      -2.17895700      -0.73885600
H        2.26810900      -3.21824600      -0.63639900
C        4.90307100      -1.06072100      -0.37305400
C        4.63190500      -3.05119700      -1.71621400
C        6.13564200      -0.81593700      -0.98152000
H        4.51920900      -0.38017700       0.38107500
C        5.86893200      -2.81157700      -2.32422300
H        4.04044200      -3.91702900      -2.00607400
C        6.62281800      -1.69233200      -1.95882900
H        6.71708600       0.05666100      -0.69413000
H        6.23842500      -3.49350500      -3.08578900
H        7.58184000      -1.50157900      -2.43344300
C        3.07355900      -3.04184100       1.36770700
C        1.86234500      -3.53572700       2.01538100
H        3.80008600      -3.85881900       1.27330800
H        3.53754000      -2.25630100       1.97666300
C        0.83716700      -3.93629200       2.51769700
H       -0.06895400      -4.28284600       2.96366500
Cl       1.08305300      -0.18259700       2.38667300
Cl      -0.38558600      -2.53513500      -0.66079300
O        0.41780800       0.44644600      -0.74543900
O       -1.18804000      -0.42112600       1.12518200
C       -1.30508700       1.92578300      -0.19938700
C       -2.27887500       0.85543200      -0.48427000
C       -3.24316600      -1.23283300       0.29872100
C        1.02909700       2.62189500      -0.12147900
C        0.60105800       3.95119300       0.18293800
C       -1.72872600       3.18307500       0.13309600
C       -0.80078000       4.22983800       0.33165200
C       -3.29898200       1.04520500      -1.37367200
C       -4.35018000       0.10502500      -1.47069800
C       -4.34910300      -1.02494600      -0.58356100
H       -2.79113700       3.36674500       0.24275500
C       -1.23702400       5.53670500       0.65440800
H       -3.30626200       1.94071600      -1.98458900
C       -5.41549400       0.29406600      -2.38208400
C       -5.46637100      -1.90036200      -0.61973500
C       -3.13926300      -2.35567700       1.31200600
N        0.06070400       1.69386600      -0.30600900
N       -2.25617200      -0.30779000       0.28007500
C        2.47242400       2.19042400      -0.29665700
C        1.51378100       5.03006100       0.32836100
C       -0.31874100       6.55507800       0.80710000
C        1.06049100       6.29783500       0.63220600
H        2.57135900       4.87375100       0.18807100
H       -2.30106800       5.72033600       0.76992600
H       -0.65321000       7.55860000       1.05232800
H        1.77539400       7.10823000       0.73567500
C       -6.47128100      -0.59429400      -2.40798100
C       -6.49803300      -1.68787900      -1.51263600
H       -5.52457000      -2.73820600       0.05687900
H       -5.38985300       1.15199100      -3.04743500
H       -7.28947700      -0.44898900      -3.10695700
H       -7.34203200      -2.37074000      -1.52365800
C        3.07144900       2.77990700      -1.59426500
C        3.35414400       2.44453000       0.94682600
H        2.46335900       1.11193300      -0.43340000
C       -3.32086500      -3.78652100       0.74634600
H       -2.13006600      -2.30539700       1.71181600
C       -4.10246000      -2.06856300       2.48869800
H        4.07477500       2.36109100      -1.72532800
H        2.46468600       2.50017100      -2.46194200
H        3.15109200       3.86973200      -1.56225800
H        4.28030800       1.87659500       0.81045200
H        3.62748800       3.49197700       1.08779500
H        2.86111100       2.08304800       1.85318600
H       -2.99758700      -3.85980700      -0.29458700
H       -2.70216100      -4.46483100       1.34214700
H       -4.35381600      -4.13749900       0.82181100
H       -3.96416400      -2.84699600       3.24670200
H       -3.88820700      -1.09628600       2.94509900
H       -5.14689100      -2.08204500       2.16231400
