75
Properties=species:S:1:pos:R:3 pbc="F F F"
Si      -0.19888000       1.45976900       0.90510900
O        0.64729900       2.11418700      -0.34169100
C        1.90897300       2.75360200      -0.51288800
C        2.90726100       1.79840100      -1.14415400
H        2.29506000       3.09598000       0.45222600
C        2.51455100       0.58735700      -1.72658200
C        4.26384800       2.15120600      -1.15028100
C        3.46813200      -0.26765300      -2.28955500
H        1.46470700       0.31379500      -1.73612100
C        5.21460900       1.30417100      -1.72143300
H        4.57840100       3.08452500      -0.68859800
C        4.81944700       0.08660900      -2.28827000
H        3.15312600      -1.21219900      -2.72515500
H        6.26427000       1.58526200      -1.71027300
H        5.56033700      -0.58064900      -2.72022200
C        1.68317100       3.98897800      -1.42215700
C        0.80002200       4.98169400      -0.81451500
H        2.66176200       4.43514600      -1.63627800
H        1.26728500       3.64079200      -2.37647400
C        0.06462500       5.78349200      -0.28607300
H       -0.58160900       6.49527600       0.17917700
Cl       0.95375000       2.41010600       2.57376200
Cl      -2.02862500       2.21554500       1.65191400
O       -1.06242900       0.59663100      -0.54042900
O        0.12774600      -0.12207000       1.64840800
C       -1.71616500      -1.51414200       0.15464800
C       -0.28692500      -1.86661100       0.13131100
C        1.94578600      -1.47103800       1.01499600
C       -3.36357200       0.10291900      -0.59060900
C       -4.38768200      -0.86339900      -0.34006300
C       -2.68009800      -2.43725000       0.44716800
C       -4.04500300      -2.13412500       0.23621800
C        0.15358600      -2.93420500      -0.60122600
C        1.51134300      -3.32367000      -0.56989600
C        2.41586600      -2.59958100       0.27671800
H       -2.38451800      -3.41288300       0.81635600
C       -5.05677600      -3.07904200       0.52845200
H       -0.55713200      -3.47927700      -1.21168500
C        1.97493800      -4.42019100      -1.33371500
C        3.76121600      -3.04632300       0.35654400
C        2.77692700      -0.68725600       2.00446400
N       -2.09213000      -0.25336500      -0.29380500
N        0.63602200      -1.14815100       0.88252500
C       -3.58326500       1.44811900      -1.25296700
C       -5.75161600      -0.61821100      -0.64862300
C       -6.37590900      -2.79381100       0.24003500
C       -6.71833200      -1.56163600      -0.36219300
H       -6.04566800       0.30692200      -1.11860100
H       -4.77360300      -4.02910300       0.97163300
H       -7.15231600      -3.51928300       0.46359400
H       -7.75555600      -1.35277000      -0.60563800
C        3.29644200      -4.80960200      -1.25203500
C        4.18640900      -4.12383400      -0.39382300
H        4.46469100      -2.54985700       1.00577400
H        1.27385900      -4.94814300      -1.97309800
H        3.65393200      -5.65039800      -1.83880800
H        5.21999100      -4.44790000      -0.32223100
C       -3.85795400       1.23087700      -2.76053500
C       -4.65295300       2.35234300      -0.58913800
H       -2.63631200       1.97621000      -1.17907000
C        4.13794800      -0.16518700       1.47683100
H        2.19346900       0.18665800       2.27563000
C        2.92770900      -1.52961900       3.29589700
H       -3.93963700       2.21111500      -3.24237700
H       -3.03899500       0.67788500      -3.23310500
H       -4.79167400       0.68338300      -2.92213100
H       -4.34204700       3.39366100      -0.71764100
H       -5.63657300       2.24606200      -1.05560100
H       -4.74980800       2.15705700       0.48173400
H        4.17335900      -0.12245700       0.38799200
H        4.28529800       0.84873200       1.85953100
H        4.97402600      -0.77556100       1.83298100
H        3.46149000      -0.92611000       4.03749000
H        1.94955100      -1.80120500       3.70661500
H        3.50051700      -2.44315300       3.10767900
