75
Properties=species:S:1:pos:R:3 pbc="F F F"
Si       0.18065600      -1.30417200       0.36040000
O        1.49953100      -2.14511800      -0.26432000
C        2.84766000      -2.31937000       0.14732800
C        3.82558700      -1.73030600      -0.85643100
H        3.01926200      -1.85842200       1.12647800
C        3.46680100      -1.48754800      -2.18697900
C        5.14355500      -1.48237600      -0.44875100
C        4.41361700      -1.00605100      -3.09621700
H        2.44438000      -1.66801700      -2.50274800
C        6.09186000      -1.00535600      -1.35649100
H        5.42774500      -1.66629500       0.58527800
C        5.72863200      -0.76729600      -2.68662700
H        4.12226200      -0.81654000      -4.12620900
H        7.10912800      -0.81402900      -1.02506100
H        6.46276400      -0.39171800      -3.39436400
C        3.11955200      -3.84635400       0.27499700
C        2.29253100      -4.50822800       1.28014900
H        4.18135200      -3.98404300       0.51408900
H        2.94677600      -4.29852500      -0.71034000
C        1.60292500      -5.05325400       2.11121900
H        0.99352000      -5.52974400       2.84739100
Cl       0.80329400      -1.22850800       2.40280400
Cl      -1.11879900      -2.63744300      -0.68978300
O        0.50266900       0.13416700      -0.63273200
O       -1.32916800      -0.41102100       1.11833700
C       -0.91571300       1.93493100      -0.12332800
C       -2.08587100       1.11176500      -0.46925400
C       -3.52644000      -0.67945000       0.30922100
C        1.49044200       2.09281900       0.19246300
C        1.33528700       3.46578700       0.55628900
C       -1.08100100       3.24936400       0.21976000
C        0.02598800       4.05503700       0.56469100
C       -3.02078600       1.53579400      -1.37199500
C       -4.26683700       0.87595800      -1.47346300
C       -4.54717500      -0.20921700      -0.57447900
H       -2.08368500       3.66000300       0.24392100
C       -0.14204500       5.41461600       0.91925900
H       -2.81078900       2.40807100      -1.98043500
C       -5.25149900       1.31210500      -2.39134600
C       -5.84807100      -0.77777100      -0.60172300
C       -3.69906300      -1.79265200       1.32203400
N        0.36827500       1.40462200      -0.12995300
N       -2.34265600      -0.02391100       0.29133900
C        2.81786200       1.37452600       0.09398600
C        2.44026900       4.29151500       0.89622000
C        0.95456500       6.18356700       1.25052700
C        2.24947400       5.61587100       1.23421100
H        3.44264900       3.89450400       0.88728600
H       -1.14286600       5.83582900       0.92353100
H        0.82679100       7.22706700       1.52225600
H        3.10803800       6.22881000       1.49041900
C       -6.49527800       0.71436000      -2.40950200
C       -6.79455500      -0.32528400      -1.49955000
H       -6.11332900      -1.56416400       0.08705200
H       -5.01344100       2.12955500      -3.06546200
H       -7.25156000       1.04989400      -3.11275900
H       -7.78301900      -0.77437100      -1.50343800
C        3.69149300       1.94209300      -1.04685200
C        3.56458600       1.26701100       1.44120800
H        2.59449800       0.35519100      -0.20424600
C       -4.25039300      -3.12842200       0.76319800
H       -2.70529500      -2.00107000       1.70911700
C       -4.53914300      -1.26660700       2.51098100
H        4.55700800       1.28351400      -1.15922400
H        3.13723700       1.93966600      -1.99084400
H        4.04217300       2.95833500      -0.85123600
H        4.39001400       0.56261800       1.29645000
H        3.98621000       2.21319500       1.78608000
H        2.90551100       0.87353400       2.22057200
H       -3.99268800      -3.26999700      -0.28909000
H       -3.80165700      -3.94589600       1.33580500
H       -5.33544400      -3.21037400       0.87514700
H       -4.59442500      -2.05321700       3.27126700
H       -4.07471000      -0.38156400       2.95895200
H       -5.55648600      -1.01086700       2.19892300
