75
Properties=species:S:1:pos:R:3 pbc="F F F"
Si       0.14264500      -1.28050200      -0.81968600
O        1.73991100      -1.02527500      -0.50574100
C        2.85166000      -1.76525800       0.04805800
C        2.63366500      -2.10226300       1.51500400
H        3.66724300      -1.03624500      -0.00132900
C        2.20639900      -1.07432000       2.36996300
C        2.88288300      -3.36866300       2.05541000
C        2.01148000      -1.31144100       3.73087700
H        2.01771200      -0.08598900       1.96127400
C        2.69556900      -3.60782000       3.42092400
H        3.21078300      -4.18297200       1.41789300
C        2.25611500      -2.58294400       4.26241000
H        1.67474200      -0.50483600       4.37727600
H        2.88748400      -4.59921500       3.82291800
H        2.10682600      -2.77126900       5.32231700
C        3.26687400      -2.95321700      -0.84630700
C        3.46374300      -2.56957400      -2.24144800
H        4.20550400      -3.35173000      -0.44084500
H        2.51943300      -3.75018800      -0.78401100
C        3.61378700      -2.24595300      -3.39690500
H        3.74494000      -1.96515400      -4.41883700
Cl      -0.61817400      -1.79440200      -2.72735600
Cl      -0.01896900      -3.36323000      -0.04755500
O       -0.98870600      -0.82225300       0.47624400
O        0.04197900       0.47844000      -1.48152700
C       -1.74818100       1.39199700       0.28245700
C       -0.35708300       1.86252500       0.34564100
C        1.74122900       1.99039300      -0.86376800
C       -3.29179400      -0.48517600       0.17167300
C       -4.38203200       0.43883800       0.12702900
C       -2.78021000       2.28912800       0.24443200
C       -4.12019400       1.85031200       0.17324100
C        0.04624100       2.81174600       1.24363100
C        1.31760800       3.41668900       1.12015500
C        2.15513800       3.03908300       0.01587000
H       -2.55181900       3.34861900       0.24604500
C       -5.18904200       2.77665700       0.13540700
H       -0.63387900       3.11710500       2.03089400
C        1.74564700       4.41450300       2.02834100
C        3.37920500       3.73637600      -0.16262100
C        2.53956700       1.49698200      -2.04950100
N       -2.04299700       0.03414400       0.25575400
N        0.52284900       1.44746500      -0.64828200
C       -3.44200100      -1.99142000       0.15925900
C       -5.73679000       0.01565600       0.05386900
C       -6.49140200       2.32768300       0.06177700
C       -6.76109700       0.94018200       0.02339600
H       -5.98204800      -1.03389400       0.02478000
H       -4.96334000       3.83826100       0.16565700
H       -7.31251300       3.03764000       0.03373700
H       -7.78850300       0.59387100      -0.03156900
C        2.95538500       5.05081900       1.83878500
C        3.76508300       4.71761100       0.72852800
H        4.01560700       3.51416800      -1.00532000
H        1.10108800       4.67446800       2.86273800
H        3.28250500       5.81824900       2.53390700
H        4.70343600       5.24071400       0.57190200
C       -4.14959000      -2.51415700       1.43048300
C       -4.05792700      -2.51849300      -1.15696900
H       -2.43856400      -2.40555400       0.19842200
C        4.01160200       1.12621200      -1.72544700
H        2.05276300       0.58620700      -2.38513700
C        2.42932100       2.52205100      -3.20345600
H       -4.10417500      -3.60807000       1.41230700
H       -3.63035000      -2.16340500       2.32866000
H       -5.19791700      -2.21499900       1.49825900
H       -3.97914600      -3.61061700      -1.14216000
H       -5.10897500      -2.25377600      -1.28865500
H       -3.49419400      -2.14778300      -2.01826100
H        4.17085700       0.96257900      -0.65592600
H        4.25729800       0.20002600      -2.25120000
H        4.71015600       1.90095500      -2.05713100
H        2.95985900       2.12227800      -4.07425700
H        1.38258900       2.68840300      -3.47962000
H        2.87941800       3.48191500      -2.93095100
