75
Properties=species:S:1:pos:R:3 pbc="F F F"
Si      -0.59189500      -0.86682600       0.76610600
O       -1.56511000      -0.96329900      -0.55985900
C       -2.92828400      -1.37100900      -0.75249300
C       -3.10952000      -2.86097300      -0.55635500
H       -3.57521800      -0.82723900      -0.05773500
C       -2.14333300      -3.76655600      -1.01274000
C       -4.27690900      -3.34545300       0.04350200
C       -2.33840300      -5.14137500      -0.85944000
H       -1.23512700      -3.39210500      -1.47633800
C       -4.47792900      -4.72059000       0.19091200
H       -5.02237000      -2.64205100       0.40739600
C       -3.50711400      -5.62180100      -0.25864400
H       -1.57956900      -5.83727500      -1.20804600
H       -5.38450700      -5.08722600       0.66528800
H       -3.65801200      -6.69124100      -0.13714400
C       -3.29353600      -0.97750300      -2.20686400
C       -3.15505300       0.45179200      -2.48044100
H       -4.32719900      -1.29768200      -2.38722100
H       -2.65183200      -1.55272100      -2.88646200
C       -3.02725600       1.63623700      -2.69093100
H       -2.92470200       2.68380300      -2.87151100
Cl       0.60308500      -2.39138100       1.61981000
Cl      -2.17754400      -1.15952100       2.31849200
O        0.69269500      -0.53719000      -0.58783700
O       -0.19577800       0.69290200       1.51530800
C        2.16968500       1.07161600       0.19028400
C        1.05968000       2.02950700       0.05741300
C       -1.18413100       2.68246100       0.73756000
C        2.96394300      -1.13376000      -0.43323200
C        4.29022100      -0.72662700      -0.08574000
C        3.42086100       1.47054700       0.56754900
C        4.51404200       0.57953900       0.46932800
C        1.20430500       3.16511100      -0.69054400
C        0.15476300       4.10599200      -0.78727700
C       -1.05663200       3.86529600      -0.05419200
H        3.56957600       2.48580300       0.91737600
C        5.81693500       0.97640800       0.85301300
H        2.13299500       3.32248600      -1.22666200
C        0.28641100       5.26971400      -1.58133000
C       -2.09534800       4.82991100      -0.14439900
C       -2.35855700       2.37388000       1.64260600
N        1.96910200      -0.23600500      -0.23918900
N       -0.14270000       1.81619500       0.72020700
C        2.60705900      -2.45079100      -1.09209400
C        5.41593500      -1.57062900      -0.27734600
C        6.88301300       0.11803400       0.67663900
C        6.67822100      -1.15558800       0.09820700
H        5.29662600      -2.54425800      -0.72570500
H        5.95938900       1.96645700       1.27605000
H        7.88306600       0.42258500       0.97046700
H        7.52465100      -1.81784800      -0.05588200
C       -0.74863100       6.17945700      -1.65302600
C       -1.94209900       5.95510600      -0.92861000
H       -3.01649200       4.69171600       0.39883100
H        1.21107500       5.43049700      -2.12748200
H       -0.64859200       7.07151500      -2.26397700
H       -2.75027000       6.67748900      -0.98767000
C        3.07260200      -2.42630200      -2.56748000
C        3.09161900      -3.71938300      -0.34526900
H        1.52145300      -2.49061500      -1.10769400
C       -3.70025200       2.17541200       0.90280300
H       -2.14001800       1.42017600       2.11315600
C       -2.44424000       3.40167200       2.79543200
H        2.74563400      -3.35445800      -3.04861800
H        2.62895700      -1.58108000      -3.10458800
H        4.16218200      -2.35887400      -2.64417800
H        2.35084200      -4.50967900      -0.50061700
H        4.04721600      -4.08837800      -0.72896500
H        3.18640300      -3.54998800       0.73007600
H       -3.57362000       1.55606200       0.01127900
H       -4.38085100       1.66345800       1.59076800
H       -4.17345100       3.11288400       0.60070600
H       -3.23199100       3.07149300       3.48084500
H       -1.49980300       3.44057000       3.34864600
H       -2.68577700       4.40988200       2.45017800
