81
Properties=species:S:1:pos:R:3 pbc="F F F"
Si       0.29074800      -1.61291900       0.56127200
O       -1.34386700      -1.66973900       0.28875800
C       -2.09295700      -2.26361600      -0.80929700
C       -2.33016300      -1.19847500      -1.86238800
H       -1.49390700      -3.06236900      -1.25022000
C       -3.46646600      -0.37916900      -1.87895000
C       -1.34237400      -1.00497900      -2.83916800
C       -3.61269400       0.61098300      -2.85271900
H       -4.24977600      -0.50583900      -1.13880200
C       -1.47851800      -0.00608000      -3.80517600
H       -0.46167600      -1.64103600      -2.83670600
C       -2.61771500       0.80500000      -3.81428600
H       -4.50010700       1.23609600      -2.85331000
H       -0.70313400       0.13136000      -4.55453000
H       -2.73117600       1.57999900      -4.56772100
C       -3.37926900      -2.89499600      -0.24630100
C       -3.11139600      -3.92343300       0.75567800
H       -3.92794100      -3.32717900      -1.09283400
H       -4.02067500      -2.12338700       0.19045800
C       -2.87285100      -4.76102100       1.59452600
H       -2.66102600      -5.50556300       2.33037900
Cl       1.36257000      -2.20689300       2.30018600
Cl       0.79992200      -3.53588800      -0.45897500
O        1.17105200      -0.73445200      -0.71411500
O        0.05423200      -0.04299200       1.53812700
C        1.43911900       1.48652600      -0.02604900
C       -0.02837500       1.62638000      -0.02875000
C       -2.00090800       1.12599200       1.30437600
C        3.36999100       0.09856600      -0.53504900
C        4.18858600       1.07264500       0.13776300
C        2.23145400       2.52926000       0.35872000
C        3.61969600       2.33253900       0.52778800
C       -0.68707000       2.53139400      -0.80094800
C       -2.07501000       2.71744400      -0.62009900
C       -2.74638500       2.01356300       0.43934200
H        1.76974800       3.47195600       0.62829900
C        4.42667300       3.32916000       1.12675900
H       -0.14620600       3.09331000      -1.55366000
C       -2.78203600       3.60528200      -1.46487500
C       -4.14906300       2.22393900       0.55473300
C       -2.58438700       0.56697200       2.62630900
N        2.03149900       0.28528800      -0.39955700
N       -0.71827300       0.90810900       0.93955800
C        3.94802200      -1.00713800      -1.45134000
C        5.54307700       0.82674600       0.49293600
C        5.74988300       3.06785300       1.41425200
C        6.29430900       1.79552700       1.12677900
H        5.98289700      -0.14405900       0.32302300
H        3.97381600       4.28143800       1.38588000
H        6.36606000       3.82471500       1.89008300
H        7.31605500       1.56967200       1.41583900
C       -4.13710600       3.79184000      -1.30424000
C       -4.82023600       3.07938000      -0.29547300
H       -4.72586300       1.70884200       1.30509700
H       -2.23326700       4.12170200      -2.24643500
H       -4.68078800       4.46800600      -1.95695400
H       -5.89293000       3.20158100      -0.18091900
C        5.14578400      -0.40777500      -2.25612600
C        4.38855500      -2.23458800      -0.62017800
C        2.96772800      -1.48001700      -2.56196100
C       -3.71333100      -0.46129800       2.35418100
C       -1.60564700      -0.14757500       3.59267300
C       -3.08035700       1.80169300       3.44966100
H        5.50921800      -1.19431000      -2.92371700
H        4.80034200       0.43205700      -2.86949600
H        5.98781700      -0.06913400      -1.65746600
H        4.83260200      -2.96675200      -1.30357600
H        5.12870500      -1.98324800       0.14347600
H        3.52390100      -2.69438900      -0.13474900
H       -3.26000600      -1.41719100       2.08514800
H       -4.28193200      -0.59541400       3.28048200
H       -4.40663200      -0.18202200       1.56086000
H       -3.52010300       1.42196900       4.37710000
H       -2.22369600       2.43364100       3.71000500
H       -3.82050100       2.42561000       2.95301100
H        3.56542500      -2.01223300      -3.30879800
H        2.20641700      -2.16132100      -2.19550300
H        2.48774800      -0.62827200      -3.05553900
H       -1.26441900      -1.10725400       3.20953800
H       -0.74128200       0.47266700       3.84035400
H       -2.17183000      -0.33298500       4.51274500
