81
Properties=species:S:1:pos:R:3 pbc="F F F"
Si       0.23083200      -1.14796800      -0.33826500
O        1.75562900      -0.60525000       0.00014500
C        2.87897100      -1.03813100       0.79521900
C        3.49357000      -2.32819900       0.26811000
H        3.61055900      -0.23885200       0.62927400
C        3.56556200      -2.51955200      -1.12037900
C        4.05267900      -3.29976900       1.10778200
C        4.16952600      -3.65667700      -1.65725000
H        3.13082600      -1.78153000      -1.78658600
C        4.66204900      -4.43925200       0.57208800
H        4.00856300      -3.19137700       2.18624800
C        4.72272500      -4.62358700      -0.81110500
H        4.20672200      -3.78768400      -2.73562900
H        5.08253400      -5.18545000       1.24122100
H        5.19248700      -5.51145700      -1.22588900
C        2.55555800      -1.02046100       2.30475300
C        2.07763400       0.28305900       2.75992900
H        3.47988600      -1.25831900       2.84477600
H        1.82640300      -1.80158400       2.54145000
C        1.70408100       1.36671300       3.14522300
H        1.37918900       2.32422200       3.48637400
Cl      -0.45254600      -2.04307900      -2.14194100
Cl       0.37567200      -3.11723300       0.67442200
O       -0.99257500      -0.64437300       0.86025400
O       -0.04036200       0.43382500      -1.30000000
C       -2.04825000       1.29230000       0.07382100
C       -0.75952300       1.99244300       0.21032900
C        1.42804300       2.24544100      -0.82097900
C       -3.32653300      -0.73149300       0.50507200
C       -4.40441400      -0.15425100      -0.25495600
C       -3.14839200       1.94335300      -0.40319300
C       -4.33669800       1.22349600      -0.65531200
C       -0.59141200       3.07639000       1.01350100
C        0.65161000       3.74690600       1.02057000
C        1.67711900       3.33295800       0.10076500
H       -3.06711300       2.98974200      -0.67344900
C       -5.41981500       1.82664900      -1.33791600
H       -1.39927300       3.39578500       1.66179200
C        0.87547800       4.80763300       1.93068000
C        2.91830100       4.02551700       0.17632600
C        2.36206400       1.95488100      -2.02246100
N       -2.15635700      -0.04302000       0.45065300
N        0.26649700       1.58130900      -0.63032200
C       -3.50537600      -1.96641100       1.42330200
C       -5.53172000      -0.90583500      -0.68515400
C       -6.51815200       1.07360200      -1.69640500
C       -6.55057000      -0.30757900      -1.39838700
H       -5.57666800      -1.96958400      -0.50952600
H       -5.34961500       2.87764400      -1.60158000
H       -7.34288500       1.53048700      -2.23487200
H       -7.38364400      -0.91319000      -1.74160100
C        2.09630900       5.44581300       1.97167800
C        3.12173800       5.03939100       1.09108000
H        3.73864400       3.76305300      -0.47137200
H        0.07075900       5.09393500       2.60151000
H        2.27249700       6.25166300       2.67773300
H        4.08955000       5.52993400       1.12779300
C       -4.89890700      -1.86687400       2.12355600
C       -3.38366000      -3.27686300       0.61181300
C       -2.50277400      -2.01609900       2.60993800
C        3.75118000       1.43477300      -1.55198100
C        1.86850400       0.93705300      -3.08025400
C        2.46794000       3.29731700      -2.82034900
H       -4.96980900      -2.70749100       2.82010000
H       -4.96646600      -0.93674800       2.69890800
H       -5.75693400      -1.92128100       1.45788600
H       -3.55225800      -4.11599400       1.29581600
H       -4.11374400      -3.34160700      -0.19898300
H       -2.38028400      -3.37007000       0.18965600
H        4.09656200       1.84691800      -0.60363800
H        3.70815100       0.35035400      -1.43834800
H        4.48968900       1.66844100      -2.32608600
H        3.12682900       3.12068500      -3.67632000
H        1.47793100       3.57509900      -3.19914900
H        2.86262700       4.13931200      -2.25457500
H       -2.89635000      -2.74048200       3.32997100
H       -1.51080200      -2.34321000       2.31567200
H       -2.43111200      -1.04442900       3.11011800
H        1.82954600      -0.07906700      -2.69426500
H        0.89141100       1.20459500      -3.48826400
H        2.60161900       0.96483000      -3.89485200
