81
Properties=species:S:1:pos:R:3 pbc="F F F"
Si      -0.33742200       1.30438400       1.24270900
O        0.60414700       2.33614700       0.36835700
C        0.77339800       2.60048100      -1.04482800
C        1.95770300       1.83487100      -1.58354500
H       -0.12254500       2.31358600      -1.59225900
C        3.23853200       2.02246500      -1.04358900
C        1.79067100       0.95926100      -2.66151900
C        4.33748500       1.36366400      -1.59353100
H        3.37064400       2.68618600      -0.19396300
C        2.89097500       0.29497300      -3.21290400
H        0.79577200       0.80207500      -3.07089900
C        4.16648800       0.50471200      -2.68535600
H        5.32720100       1.51615900      -1.17132900
H        2.75183900      -0.38350400      -4.05000900
H        5.02262500      -0.00830100      -3.11261800
C        0.96614600       4.12759500      -1.19128700
C       -0.21480300       4.88318400      -0.77930600
H        1.19818400       4.33659600      -2.24330700
H        1.83792000       4.43189000      -0.59901800
C       -1.21169200       5.47484300      -0.43440900
H       -2.08680700       6.00395700      -0.12651900
Cl       0.43556200       2.22801200       3.11285600
Cl      -2.34541400       1.54192200       1.92479500
O       -0.96014600       0.56639500      -0.37362400
O        0.27758300      -0.28392800       1.76464200
C       -1.23105200      -1.67626500      -0.01526900
C        0.24039300      -1.73116100      -0.07048800
C        2.33182200      -1.22723500       1.06463700
C       -3.15920200      -0.31288200      -0.59505400
C       -3.99245900      -1.45802300      -0.29735300
C       -1.98803900      -2.78377300       0.20792900
C       -3.39617600      -2.69462100       0.12942400
C        0.87411800      -2.49001900      -1.00992300
C        2.28395100      -2.50405700      -1.07155400
C        3.02445100      -1.81371600      -0.05283200
H       -1.50424700      -3.72135200       0.45633000
C       -4.19716300      -3.81903500       0.44139100
H        0.28265900      -3.02803200      -1.74172700
C        2.95604600      -3.17388500      -2.12064800
C        4.43184100      -1.72333800      -0.22294400
C        3.01861500      -0.93284400       2.42272300
N       -1.83904100      -0.46555000      -0.33149200
N        0.99370000      -1.06471300       0.89050400
C       -3.73782500       0.93986300      -1.29285100
C       -5.41341900      -1.42952800      -0.38482400
C       -5.57059400      -3.74242200       0.35224900
C       -6.17424100      -2.53530500      -0.06124700
H       -5.93079600      -0.53559000      -0.69311800
H       -3.70649200      -4.73584100       0.75461100
H       -6.18619800      -4.60251200       0.59759900
H       -7.25579200      -2.46870300      -0.12815700
C        4.33135800      -3.12526400      -2.20551500
C        5.06311700      -2.36407300      -1.26858100
H        5.01963800      -1.10247000       0.43442300
H        2.36530800      -3.70356500      -2.86185000
H        4.84918300      -3.63594100      -3.01166200
H        6.13737600      -2.25790200      -1.38269400
C       -4.31187400       0.42280500      -2.65591600
C       -4.83556900       1.62708700      -0.41025000
C       -2.75022000       2.05335900      -1.70905100
C        3.73145800       0.43827200       2.37686200
C        2.05239900      -0.95705200       3.64062500
C        4.02265900      -2.08785900       2.74094300
H       -4.73274100       1.28398100      -3.18440700
H       -3.49878900       0.00922900      -3.26321700
H       -5.08805800      -0.33565100      -2.56194000
H       -5.71481800       1.85227000      -1.02315300
H       -5.15222000       1.02509600       0.44268300
H       -4.44690300       2.56570900      -0.00804300
H        3.00137500       1.23896000       2.23055500
H        4.23155400       0.59393800       3.33915000
H        4.48017800       0.49657900       1.58294500
H        4.43448900      -1.89045700       3.73486600
H        3.49308200      -3.04674200       2.77261200
H        4.86117800      -2.18404100       2.05570200
H       -3.34515500       2.80168000      -2.24466600
H       -2.28668800       2.54662800      -0.85690600
H       -1.98180600       1.68154000      -2.39087400
H        1.44704800      -0.06076100       3.72214200
H        1.39991100      -1.83579400       3.60997300
H        2.67321600      -1.02667500       4.53941000
