81
Properties=species:S:1:pos:R:3 pbc="F F F"
Si       0.18796300       0.95026900       0.74481700
O        1.07957100       1.49320700      -0.53228400
C        2.20460300       2.38207900      -0.63229900
C        1.81908900       3.82810500      -0.40397800
H        2.97071400       2.08999100       0.09190200
C        0.61603800       4.34254600      -0.90215500
C        2.70125600       4.67906300       0.27121000
C        0.29404100       5.68942900      -0.71733900
H       -0.07276700       3.68596700      -1.42449800
C        2.38583000       6.02842500       0.45060300
H        3.63047700       4.27815100       0.66958000
C        1.17911800       6.53655200      -0.04188000
H       -0.64650100       6.07715600      -1.10032100
H        3.07476900       6.67889500       0.98317800
H        0.92810600       7.58388300       0.10406200
C        2.77030500       2.20019300      -2.06282600
C        3.22354700       0.83927100      -2.34188300
H        3.60233700       2.90497900      -2.18397000
H        1.99054200       2.49194300      -2.77794100
C        3.59352600      -0.29084400      -2.56405500
H        3.91849900      -1.28871500      -2.75878800
Cl      -1.58870700       1.80586500       1.54111600
Cl       1.40140100       1.87874700       2.36879600
O       -0.78084800       0.13614400      -0.65409500
O        0.48993200      -0.64041200       1.49332200
C       -1.60451000      -1.82091600       0.20540400
C       -0.22732600      -2.31220100       0.02036100
C        2.09888600      -2.18368300       0.71332300
C       -3.13766300      -0.10584000      -0.58485100
C       -4.20742400      -0.84303800       0.05087600
C       -2.60325500      -2.58192900       0.72604700
C       -3.92613700      -2.08193000       0.72824900
C        0.03084600      -3.34857900      -0.82901800
C        1.36754400      -3.70499200      -1.11416600
C        2.42132700      -3.06835300      -0.37465600
H       -2.37530200      -3.55439800       1.14725400
C       -4.95770100      -2.81010500       1.36698200
H       -0.79369800      -3.82238400      -1.34930100
C        1.67014900      -4.62604500      -2.14561300
C        3.75575900      -3.30099300      -0.80516100
C        3.07651800      -1.87404900       1.87465200
N       -1.89016400      -0.57429300      -0.34121100
N        0.82292100      -1.71814700       0.70981500
C       -3.39975500       1.04299100      -1.59342200
C       -5.55642500      -0.39072600       0.07964200
C       -6.25034700      -2.33075400       1.37233700
C       -6.54097700      -1.10830300       0.72962100
H       -5.83915800       0.53672700      -0.39078000
H       -4.70481000      -3.74518100       1.85811500
H       -7.04014800      -2.88503000       1.87025200
H       -7.55459300      -0.71955500       0.74289800
C        2.98142200      -4.86097500      -2.50197100
C        4.02289500      -4.16340400      -1.84870100
H        4.57269600      -2.75172400      -0.36360900
H        0.85195100      -5.11113800      -2.66911800
H        3.21487400      -5.55431500      -3.30417700
H        5.04902600      -4.29556300      -2.17773900
C       -4.35860900       0.44512400      -2.67735200
C       -4.00495800       2.30213400      -0.91307100
C       -2.18211300       1.54217800      -2.41048900
C        4.02001100      -0.71105000       1.49264700
C        2.36409700      -1.53376800       3.21400900
C        3.88567800      -3.16784200       2.21113000
H       -4.54446900       1.22766800      -3.41989300
H       -3.86749500      -0.39574000      -3.17979300
H       -5.31924900       0.10059200      -2.29839800
H       -4.50811400       2.89558700      -1.68379200
H       -4.71589000       2.08970800      -0.11491000
H       -3.20284300       2.90480300      -0.48080800
H        3.44857800       0.21146100       1.36447500
H        4.73191300      -0.56382800       2.31242400
H        4.58008700      -0.90703000       0.57500700
H        4.49017100      -2.94817700       3.09582700
H        3.20142100      -3.98732600       2.45710100
H        4.56311900      -3.50775400       1.43197400
H       -2.57894300       2.23503500      -3.16142600
H       -1.46362000       2.07982400      -1.79565300
H       -1.67067400       0.72707100      -2.92888200
H        1.94838400      -0.53184400       3.23622900
H        1.57451600      -2.26033800       3.43462100
H        3.11857300      -1.60264200       4.00395200
