61
Properties=species:S:1:pos:R:3 pbc="F F F"
Si       0.37794700      -1.33585300      -0.04929500
O        1.70287500      -0.38800900       0.20814700
C        2.87879400      -0.54994200       1.01480400
C        3.90286600      -1.44575800       0.35032100
H        2.60709600      -0.96862000       1.98771600
C        3.99385800      -1.54934800      -1.04236200
C        4.81052000      -2.14948300       1.15174400
C        4.98042500      -2.34932400      -1.62648700
H        3.28368700      -1.01437100      -1.66447400
C        5.80087300      -2.94459500       0.56995900
H        4.73278900      -2.08187100       2.23476700
C        5.88805200      -3.04652900      -0.82291800
H        5.03793500      -2.43020400      -2.70904700
H        6.49576400      -3.49170100       1.20181400
H        6.65263000      -3.67106100      -1.27748500
C        3.45985100       0.86944400       1.23868900
C        2.56155200       1.73660900       1.99758800
H        4.41042200       0.75837200       1.77479600
H        3.68785800       1.31109000       0.26071900
C        1.80283400       2.42800100       2.63711200
H        1.14022600       3.05285900       3.19392200
Cl       0.13414600      -2.63442200      -1.69359100
Cl       0.86254300      -2.94028100       1.38500300
O       -1.04045100      -0.97307200       0.96948600
O       -0.22918400       0.00144600      -1.26623700
C       -2.45416100       0.71222800       0.08040400
C       -1.31920500       1.64086500       0.00310800
C        0.77024200       2.10855000      -1.09715400
C       -3.23155400      -1.54307100       0.45646800
C       -4.55789800      -1.15933700       0.09983500
C       -3.72590600       1.11681400      -0.24811700
C       -4.81092100       0.21109500      -0.24041300
C       -1.35751400       2.90432200       0.53917800
C       -0.31446800       3.82578200       0.29587800
C        0.76694300       3.43013800      -0.55892800
H       -3.87820200       2.14606400      -0.55231100
C       -6.12447500       0.60879200      -0.58487800
H       -2.20241100       3.18364100       1.15798100
C       -0.31202100       5.12213700       0.86346100
C        1.81447400       4.34340300      -0.82703000
C        1.76571800       1.65597400      -1.98998900
N       -2.24850300      -0.60582600       0.44733100
N       -0.23531900       1.26114300      -0.77047900
C       -2.89413600      -2.85530700       0.84273800
C       -5.62323200      -2.09277600       0.08722500
C       -7.14637800      -0.32005800      -0.58781800
C       -6.89384200      -1.67288300      -0.25147300
H       -5.42936100      -3.12839800       0.34399700
H       -6.30982500       1.64614600      -0.84602100
H       -8.15427000      -0.01449200      -0.85182500
H       -7.71055700      -2.38788200      -0.26192700
C        0.72623100       5.99124100       0.59306900
C        1.79105000       5.59938500      -0.25442000
H        2.63296700       4.04165600      -1.47118600
H       -1.13362000       5.41541400       1.51012400
H        0.72992600       6.98431100       1.03208500
H        2.59977900       6.29556400      -0.45392400
C       -2.65819000      -3.99935200       1.15714600
H       -2.42618600      -5.00605200       1.43361000
C        2.63038900       1.37596700      -2.78864000
H        3.39458000       1.10338000      -3.48492600
