61
Properties=species:S:1:pos:R:3 pbc="F F F"
Si       0.11082100      -1.50156000       0.83303700
O       -0.75338200      -2.15517600      -0.40579400
C       -2.07127300      -2.71575100      -0.48770200
C       -3.10335800      -1.62861300      -0.70106500
H       -2.30272300      -3.26779300       0.42732900
C       -2.81319800      -0.50081300      -1.47937400
C       -4.37835800      -1.76646500      -0.14267200
C       -3.78709000       0.47907500      -1.69034200
H       -1.82165900      -0.38813700      -1.90819700
C       -5.35441400      -0.78823900      -0.35505400
H       -4.60175500      -2.63563000       0.47162600
C       -5.05978000       0.33808000      -1.12974700
H       -3.55034300       1.35521100      -2.28809100
H       -6.33861000      -0.90071100       0.09194000
H       -5.81386500       1.10417100      -1.28862200
C       -2.06433400      -3.70401800      -1.67982100
C       -1.15466600      -4.83020100      -1.48010100
H       -3.08988400      -4.06945900      -1.81623200
H       -1.79312100      -3.14848800      -2.58684200
C       -0.39889800      -5.75445900      -1.28578000
H        0.26656000      -6.57285500      -1.11790900
Cl      -1.04134900      -2.33129300       2.53119600
Cl       1.92412800      -2.35811100       1.51631800
O        0.99804300      -0.64459400      -0.63172700
O       -0.13054500       0.10773500       1.56685600
C        1.91916100       1.36969500       0.12282800
C        0.55103700       1.90329600       0.17009200
C       -1.73438600       1.65541200       0.91091000
C        3.31474600      -0.40029600      -0.72556100
C        4.48096900       0.37587500      -0.44912200
C        3.01759900       2.14271800       0.40824400
C        4.32526400       1.66607500       0.15861300
C        0.24363900       3.09567700      -0.44027600
C       -1.06907300       3.62009000      -0.41374100
C       -2.08612100       2.88303900       0.27369600
H        2.86746200       3.13371900       0.82117500
C        5.47437600       2.43541000       0.45962400
H        1.02783800       3.62166300      -0.97236800
C       -1.40574900       4.83695700      -1.05308600
C       -3.41118100       3.37994100       0.30697400
C       -2.65741300       0.90814400       1.66293200
N        2.09690500       0.09306700      -0.38495700
N       -0.45225900       1.21110800       0.82578700
C        3.36900700      -1.65021700      -1.37926800
C        5.77985600      -0.10215400      -0.74815100
C        6.73035600       1.94332700       0.16414800
C        6.88151300       0.67214100      -0.44171700
H        5.89642600      -1.07764600      -1.20742100
H        5.34844200       3.41044800       0.92022100
H        7.61170100       2.53359900       0.39599100
H        7.87697500       0.30139000      -0.66562800
C       -2.70606700       5.30013100      -1.00891300
C       -3.70976700       4.56881600      -0.32752700
H       -4.17967800       2.81476800       0.82147700
H       -0.63109700       5.39219400      -1.57292700
H       -2.96538200       6.23260100      -1.50105400
H       -4.72688400       4.94763900      -0.30727600
C        3.48866800      -2.69038600      -1.98568800
H        3.57271000      -3.62088400      -2.50585900
C       -3.51001000       0.32390200       2.29106000
H       -4.24365100      -0.21416500       2.85144200
