61
Properties=species:S:1:pos:R:3 pbc="F F F"
Si       0.24193800      -0.98769700       1.38006800
O       -0.06377700      -2.30190000       0.43048500
C        0.24678200      -2.61962100      -0.93879600
C        1.70152200      -3.00228900      -1.12659700
H        0.01398900      -1.76886000      -1.58489800
C        2.48469200      -3.48670300      -0.07346400
C        2.25768600      -2.91399500      -2.40994900
C        3.81094200      -3.86804300      -0.29928800
H        2.06062800      -3.55921000       0.92289400
C        3.57719700      -3.30843500      -2.64109800
H        1.65501100      -2.52839400      -3.22964300
C        4.36005200      -3.78500400      -1.58287500
H        4.41324300      -4.23397900       0.52797000
H        3.99707500      -3.23417500      -3.64079500
H        5.38936000      -4.08674200      -1.75760100
C       -0.68405600      -3.79272400      -1.33732900
C       -2.09104000      -3.40029000      -1.38554500
H       -0.36578100      -4.15338900      -2.32312100
H       -0.53367700      -4.61302600      -0.62423900
C       -3.24321900      -3.03505700      -1.43481700
H       -4.26576500      -2.73037300      -1.47245500
Cl       2.09635300      -0.39184100       2.22351400
Cl      -0.32684300      -2.09617300       3.20016700
O        0.60292200      -0.00528200      -0.20979400
O       -1.03902600       0.19406100       1.75596200
C       -0.05093200       2.21904000       0.09142100
C       -1.44042600       1.74690300       0.00996600
C       -3.10684900       0.13669500       0.69292100
C        2.24907600       1.63828000      -0.35059700
C        2.62207100       3.01143000      -0.24150600
C        0.27342200       3.54838300       0.20298100
C        1.61301900       3.98285700       0.06850000
C       -2.33538300       2.33739300      -0.84995700
C       -3.65625800       1.85229900      -0.98457300
C       -4.05054400       0.71348300      -0.20770300
H       -0.51876200       4.26507800       0.38710900
C        1.97850300       5.34382000       0.20039300
H       -1.99707800       3.16870100      -1.45745900
C       -4.58580600       2.43923600      -1.87557900
C       -5.36224000       0.19577400      -0.33924700
C       -3.42299800      -0.95165600       1.52732300
N        0.95469000       1.28983500      -0.12867700
N       -1.85923700       0.66925500       0.77046100
C        3.14981000       0.61669800      -0.71369500
C        3.96290800       3.42837300      -0.42096600
C        3.29525600       5.72395900       0.02801600
C        4.28810600       4.76359500      -0.28409700
H        4.72359300       2.69122400      -0.65494300
H        1.21151600       6.07544100       0.43612600
H        3.57515900       6.76794900       0.13124200
H        5.31774100       5.08182200      -0.41498600
C       -5.85865600       1.91513900      -1.98645400
C       -6.24631000       0.79120900      -1.21623800
H       -5.65833700      -0.66399300       0.25161900
H       -4.28130500       3.29844200      -2.46509700
H       -6.57150100       2.36574700      -2.67024900
H       -7.25136900       0.39393800      -1.31792100
C        3.91363900      -0.25432100      -1.06257400
H        4.55105900      -1.06533800      -1.34779700
C       -3.74877500      -1.89111600       2.21578700
H       -4.00985900      -2.72738500       2.82881500
