61
Properties=species:S:1:pos:R:3 pbc="F F F"
Si       0.64510600      -0.74326200       0.57920000
O        2.25041700      -0.83250500       0.10913000
C        3.19424400      -1.89861200      -0.01319200
C        4.34524600      -1.38840000      -0.85856000
H        2.72767000      -2.74980600      -0.52150400
C        5.14377400      -0.32523700      -0.41186600
C        4.62346000      -1.97551600      -2.09702900
C        6.20086600       0.14400300      -1.19346000
H        4.93102400       0.13574300       0.54877600
C        5.68363300      -1.50979800      -2.88307200
H        4.00529100      -2.79880900      -2.44785700
C        6.47339000      -0.44820900      -2.43329900
H        6.81447000       0.96785400      -0.83698300
H        5.88919800      -1.97353500      -3.84441000
H        7.29672800      -0.08380700      -3.04212600
C        3.70562000      -2.37288400       1.37527400
C        2.70043000      -3.07853700       2.16380700
H        4.56565200      -3.03333800       1.20466600
H        4.07161100      -1.49913500       1.92790500
C        1.85679300      -3.66896200       2.79833100
H        1.10440900      -4.17961300       3.35787800
Cl       1.08600400       0.05949000       2.51678100
Cl       0.03930200      -2.62136300      -0.26538400
O        0.30303500       0.49617600      -0.64685300
O       -1.15560200      -0.50386500       1.26702200
C       -1.70128900       1.67553800      -0.24993400
C       -2.46365900       0.43099300      -0.43581800
C       -3.00496100      -1.71708200       0.51010600
C        0.45665300       2.75506100      -0.12496100
C       -0.17187800       4.00965200       0.12797900
C       -2.33687900       2.87414900      -0.03083500
C       -1.60484200       4.06777800       0.16597900
C       -3.51060800       0.34172200      -1.31869000
C       -4.34221600      -0.80191900      -1.34632800
C       -4.10459200      -1.84572900      -0.39204300
H       -3.41974800       2.88518500       0.01823100
C       -2.24144800       5.30783500       0.40958300
H       -3.69669300       1.16874000      -1.99456000
C       -5.41307300      -0.92898200      -2.26256600
C       -4.95225900      -2.97988800      -0.37347300
C       -2.73801900      -2.66492900       1.52186700
N       -0.31963300       1.65331700      -0.29106400
N       -2.20198300      -0.62635900       0.42271400
C        1.85224900       2.60759900      -0.25268100
C        0.58367700       5.19000200       0.33206900
C       -1.48225300       6.44447200       0.60690500
C       -0.06735900       6.38402300       0.56819300
H        1.66671600       5.14197900       0.30336700
H       -3.32595500       5.34646500       0.43991000
H       -1.97098700       7.39563200       0.79481900
H        0.51104900       7.28863500       0.72778300
C       -6.22052900      -2.04889900      -2.22886200
C       -5.98923800      -3.07482500      -1.28056700
H       -4.77205700      -3.76838100       0.34898700
H       -5.58647800      -0.13512900      -2.98274300
H       -7.04148700      -2.14615000      -2.93283300
H       -6.63426400      -3.94797800      -1.26896700
C        3.05276500       2.53627400      -0.38336700
H        4.10998700       2.43348500      -0.50471400
C       -2.60690700      -3.49577300       2.39173100
H       -2.46405600      -4.22718500       3.15857000
