61
Properties=species:S:1:pos:R:3 pbc="F F F"
Si      -0.32893200       1.66238200       1.12092200
O        0.64709000       2.50202500       0.09247300
C        0.85972400       2.42258800      -1.34206900
C        1.87381600       1.34737200      -1.66452100
H       -0.08371300       2.20252600      -1.84570500
C        3.16733200       1.40051900      -1.12420400
C        1.53298400       0.29105000      -2.51760600
C        4.10525300       0.41725500      -1.44102300
H        3.43348500       2.20619500      -0.44624500
C        2.47064600      -0.69740700      -2.83310500
H        0.52692900       0.24200900      -2.92613700
C        3.75966500      -0.63357500      -2.29786800
H        5.10275100       0.46463200      -1.01304000
H        2.19341100      -1.51693000      -3.49084100
H        4.48750300      -1.40422300      -2.53485300
C        1.34252400       3.81858500      -1.79401600
C        0.32604200       4.85259700      -1.61205000
H        1.61924400       3.74892200      -2.85372400
H        2.25195900       4.07575800      -1.23726200
C       -0.53731100       5.68623000      -1.46085300
H       -1.29018500       6.43095400      -1.32171000
Cl       0.43741700       2.76153000       2.86225300
Cl      -2.34724800       2.12111600       1.59598200
O       -0.90039600       0.61301100      -0.38365800
O        0.18463100       0.14146300       1.90171900
C       -1.36997400      -1.56160500       0.32161000
C        0.07945200      -1.74601400       0.47405400
C        2.17805700      -0.91659600       1.33016900
C       -3.07656600      -0.16965400      -0.65810300
C       -4.04356400      -1.20036200      -0.45490900
C       -2.27130500      -2.57535500       0.53053000
C       -3.63240000      -2.42014800       0.17904200
C        0.71888900      -2.80741200      -0.11999100
C        2.11836500      -2.96967600      -0.02293800
C        2.86993200      -2.00268600       0.72041100
H       -1.92142900      -3.50598800       0.96267500
C       -4.58622000      -3.44119500       0.40356800
H        0.12969500      -3.50667200      -0.70169500
C        2.79501400      -4.04137000      -0.65129900
C        4.27445100      -2.14195300       0.83073200
C        2.83596000       0.06050800       2.10127300
N       -1.80703400      -0.36088900      -0.21630700
N        0.82943400      -0.82822300       1.18527800
C       -3.36841900       1.02894000      -1.34438400
C       -5.39258800      -1.04200100      -0.85471200
C       -5.89762500      -3.25881100       0.01092900
C       -6.29978300      -2.05650400      -0.62020800
H       -5.70183400      -0.11933600      -1.33361200
H       -4.26847000      -4.36121400       0.88466400
H       -6.62904100      -4.04210000       0.18520600
H       -7.33525000      -1.93074100      -0.92109900
C        4.16618800      -4.15232000      -0.53306100
C        4.90533300      -3.20247500       0.21373600
H        4.84042800      -1.40870800       1.39376500
H        2.22046400      -4.76602500      -1.21983500
H        4.68634000      -4.97432900      -1.01528800
H        5.98266200      -3.30728500       0.29505300
C       -3.67114700       2.00808500      -1.98764600
H       -3.92409600       2.88910700      -2.53847500
C        3.46010800       0.86645900       2.75212300
H        3.98690900       1.59849800       3.32652900
