59
Properties=species:S:1:pos:R:3 pbc="F F F"
Si       0.40432000      -1.35469500      -0.04698400
O        1.72518600      -0.39077000       0.16542300
C        2.90554700      -0.54791500       0.98173900
C        3.92517700      -1.45298400       0.32659300
H        2.62490400      -0.95845900       1.95485100
C        4.07861000      -1.49757100      -1.06418000
C        4.76782900      -2.22338600       1.13739000
C        5.06360500      -2.30740300      -1.63645000
H        3.42375300      -0.90788200      -1.69719800
C        5.75697000      -3.02815700       0.56672800
H        4.64069400      -2.19873000       2.21746800
C        5.90664000      -3.07212800      -0.82362800
H        5.17152900      -2.34088000      -2.71752900
H        6.40171800      -3.62702900       1.20465700
H        6.67039600      -3.70334200      -1.27026200
C        3.48435900       0.87077800       1.20301000
C        2.57969500       1.74142200       1.95074100
H        3.73351400       1.30952100       0.22889100
H        4.42724500       0.75748300       1.75219100
C        1.81577700       2.43186600       2.58510100
H        1.15413800       3.05469900       3.14559400
Cl       0.10344000      -2.63202800      -1.68339700
Cl       0.87163700      -2.91930100       1.39458400
O       -1.03311200      -0.97227100       0.96331200
O       -0.22793800       0.01873100      -1.27187300
C       -2.45833800       0.70882900       0.07683900
C       -1.33244900       1.64657200      -0.00286600
C        0.75449400       2.12001300      -1.07015800
C       -3.21949000      -1.53411000       0.45625300
C       -4.54711700      -1.18794300       0.10337200
C       -3.74020800       1.09665800      -0.24979000
C       -4.81451600       0.18345600      -0.24255500
C       -1.37240000       2.91585300       0.52863200
C       -0.33148900       3.83788800       0.29322000
C        0.76303700       3.43913600      -0.55029200
H       -3.90515200       2.12548800      -0.54989100
H       -2.22031800       3.19475900       1.14357700
N       -2.23705700      -0.60318800       0.44441800
N       -0.24784000       1.26612100      -0.76990100
C       -6.13229100       0.56464200      -0.58829100
C       -7.14067000      -0.37785000      -0.58736000
H       -8.15239900      -0.08713100      -0.85242700
C       -6.87269800      -1.72838600      -0.24565500
H       -7.68217000      -2.45126300      -0.25449400
H       -6.33018800       1.59844200      -0.85299600
C       -0.33415000       5.13697200       0.85408600
C        0.70768200       6.00207400       0.58728600
H        0.70874300       6.99760100       1.02007000
C        1.78195300       5.60599400      -0.24884700
H       -1.16123000       5.43466800       1.49118000
H        2.59137800       6.30241800      -0.44325500
C        1.76537800       1.64941100      -1.95839500
C       -2.87020100      -2.85277900       0.86909800
N        2.60437800       1.37303300      -2.71128500
N       -2.67984500      -3.95070700       1.19357300
C        1.81502000       4.34852100      -0.81544700
H        2.64248200       4.04759400      -1.44893800
C       -5.60017300      -2.13640400       0.09533800
H       -5.39988300      -3.17037900       0.35450500
