59
Properties=species:S:1:pos:R:3 pbc="F F F"
Si       0.95465300      -0.55267800       1.20333800
O        1.18675400      -1.78866400       0.16061900
C        1.82630100      -1.84650800      -1.14273000
C        3.32915100      -1.80475900      -0.99054300
H        1.49514600      -1.00208500      -1.75126700
C        3.98270600      -2.66276500      -0.09462400
C        4.07911300      -0.90500900      -1.75561400
C        5.37186600      -2.61756300       0.03299500
H        3.40004200      -3.34926900       0.51312300
C        5.47132000      -0.86222400      -1.63236600
H        3.57095100      -0.22721600      -2.43670400
C        6.11944300      -1.71833500      -0.73765100
H        5.87195400      -3.28018800       0.73445500
H        6.04519700      -0.15506500      -2.22536200
H        7.20080400      -1.68201800      -0.63478800
C        1.34431900      -3.15704900      -1.80073100
C       -0.09081900      -3.16504200      -2.08196600
H        1.61051100      -3.99495900      -1.14449800
H        1.90379100      -3.28551000      -2.73577900
C       -1.27482500      -3.15122500      -2.33094100
H       -2.31508900      -3.16380600      -2.57068400
Cl       2.27713800       1.02937600       1.60875600
Cl       1.38308300      -1.62136300       3.02672100
O        0.35331900       0.53483400      -0.45499600
O       -0.73562900      -0.36361300       1.73600900
C       -1.48535800       1.82189900       0.16951200
C       -2.25231900       0.57013600       0.17857000
C       -2.37166700      -1.73821900       0.82082000
C        0.54770200       2.84855200      -0.56328800
C        0.01079300       4.14493900      -0.33824300
C       -2.05057000       3.05285300       0.40495200
C       -1.32316800       4.24391700       0.18882200
C       -3.42153600       0.44106000      -0.53804200
C       -4.11460500      -0.78520300      -0.60697600
C       -3.56364500      -1.92431300       0.07765700
H       -3.07600800       3.09702000       0.75575000
H       -3.78360200       1.30079200      -1.09001600
N       -0.17060300       1.73792700      -0.26898500
N       -1.77240100      -0.52620600       0.86377800
C       -1.87540000       5.52178500       0.44242900
C       -1.13407900       6.65601000       0.17815600
H       -1.55657100       7.63678200       0.37288500
C        0.17749400       6.55455300      -0.34891700
H        0.74370600       7.45858700      -0.54983900
H       -2.88217600       5.59040100       0.84219900
C       -5.30589900      -0.93720400      -1.35423500
C       -5.92018600      -2.17150300      -1.42014400
H       -6.83273000      -2.29086000      -1.99576300
C       -5.37302800      -3.29247500      -0.74456400
H       -5.71885100      -0.07651900      -1.87072200
H       -5.87325400      -4.25307300      -0.81335200
C       -1.78634100      -2.80182200       1.56608100
C        1.82477300       2.65573900      -1.16778400
N       -1.39080600      -3.72903900       2.14081400
N        2.84498800       2.59179200      -1.71817700
C       -4.21541000      -3.18021000      -0.00361400
H       -3.79926600      -4.04040700       0.50921600
C        0.74706600       5.32396400      -0.60821900
H        1.75361500       5.25301200      -1.00657000
