59
Properties=species:S:1:pos:R:3 pbc="F F F"
Si       0.72659100      -0.61862800       0.45317900
O        2.32597600      -0.65480800      -0.02105100
C        3.30340600      -1.69880400       0.03435700
C        4.55103800      -1.24092900      -0.69149900
H        2.91021200      -2.59562200      -0.45780100
C        5.05457600       0.05528400      -0.51913300
C        5.24711600      -2.14645300      -1.50119600
C        6.23799400       0.43981400      -1.15406400
H        4.50777500       0.76351900       0.09525900
C        6.43529500      -1.76507200      -2.13213600
H        4.85424300      -3.15141700      -1.64030200
C        6.93316200      -0.46967100      -1.95962100
H        6.61766100       1.44974000      -1.02104700
H        6.96567200      -2.47493400      -2.76170200
H        7.85379300      -0.16888600      -2.45303800
C        3.65152600      -2.06347900       1.50691000
C        2.52383700      -2.66199200       2.21389800
H        3.98349100      -1.15212100       2.01920000
H        4.49748700      -2.76152600       1.48889600
C        1.54230600      -3.13475500       2.74121600
H        0.67196600      -3.55155400       3.19953900
Cl       1.13279900       0.49036600       2.26167800
Cl       0.19559800      -2.48271200      -0.51999800
O        0.23890500       0.57464200      -0.77901500
O       -1.04204700      -0.56832300       1.22749900
C       -1.85726000       1.54918800      -0.28311500
C       -2.51461600       0.23774100      -0.40848300
C       -2.78547300      -1.94694000       0.53716800
C        0.17106300       2.83364100      -0.27146900
C       -0.53855100       4.03102700      -0.00785700
C       -2.58940800       2.69185700      -0.04140900
C       -1.97135700       3.95204000       0.09960000
C       -3.60376200       0.03756200      -1.22592900
C       -4.32119700      -1.17873000      -1.20717700
C       -3.91615000      -2.20213700      -0.28001500
H       -3.66441400       2.60247900       0.06733300
H       -3.90764000       0.83961200      -1.88944800
N       -0.48607300       1.65899800      -0.40454300
N       -2.10927200      -0.78133500       0.43477300
C       -2.71048900       5.13024900       0.35728900
C       -2.05168300       6.33483800       0.50051400
H       -2.61745400       7.23985500       0.69851800
C       -0.63915200       6.40788700       0.39347600
H       -0.14435600       7.36656000       0.51147200
H       -3.79082600       5.06800300       0.43993200
C       -5.43078000      -1.41305400      -2.05274400
C       -6.11033500      -2.61260500      -1.97773500
H       -6.96079000      -2.79377600      -2.62758700
C       -5.71074300      -3.61591600      -1.05930700
H       -5.73240900      -0.64057800      -2.75292100
H       -6.25929400      -4.55158700      -1.01919200
C       -2.33289300      -2.87472000       1.52219100
C        1.58641300       2.82060100      -0.44138200
N       -2.05216300      -3.65836400       2.33088500
N        2.73480100       2.91738700      -0.57716000
C       -4.63411100      -3.42149700      -0.21837900
H       -4.32876400      -4.19395000       0.47945800
C        0.11375900       5.27975900       0.14290800
H        1.19374100       5.33957400       0.06196400
