59
Properties=species:S:1:pos:R:3 pbc="F F F"
Si       0.20709100      -1.91543700       0.27294700
O       -1.41476600      -1.65331000       0.17920500
C       -2.41398700      -1.92008900      -0.84357300
C       -2.72326200      -0.60039500      -1.52494800
H       -1.99439300      -2.61132900      -1.57831400
C       -1.79838700      -0.11386500      -2.46295300
C       -3.85059600       0.17284900      -1.22206500
C       -1.98680300       1.12660000      -3.07342400
H       -0.92636700      -0.71449600      -2.71020000
C       -4.04579500       1.41224400      -1.83858400
H       -4.58272300      -0.17922900      -0.50196600
C       -3.11377300       1.89478200      -2.75988400
H       -1.26136700       1.48985100      -3.79653400
H       -4.92324300       2.00234800      -1.59125000
H       -3.26513100       2.86134400      -3.23247400
C       -3.61455000      -2.59241400      -0.15665300
C       -3.28199000      -3.90435600       0.39308600
H       -4.41779700      -2.68831600      -0.89811000
H       -3.98523500      -1.94340100       0.64548400
C       -2.99083800      -4.98740300       0.84434900
H       -2.73226600      -5.94352400       1.24386700
Cl       1.13211700      -2.99601800       1.81380700
Cl       0.41113200      -3.46378900      -1.24979100
O        1.24411500      -0.88859900      -0.77987300
O        0.24357300      -0.45704100       1.56093600
C        1.78078400       1.24104700       0.12900800
C        0.35785500       1.53487900       0.33617600
C       -1.62095500       0.94042900       1.53908500
C        3.47096300      -0.34820600      -0.48060800
C        4.50463400       0.57976900      -0.20286100
C        2.75306800       2.18197100       0.39393200
C        4.12454000       1.89690300       0.23461200
C       -0.24328600       2.68435700      -0.12531800
C       -1.56608300       3.01185200       0.23647700
C       -2.27657100       2.12604300       1.11782000
H        2.44219000       3.15324200       0.76213800
H        0.31967200       3.34467800      -0.77526100
N        2.17119600      -0.00454900      -0.32028600
N       -0.35836700       0.67034800       1.14073900
C        5.13196500       2.85194200       0.50773200
C        6.46000900       2.51032200       0.35017500
H        7.23450600       3.24169900       0.55874100
C        6.83023500       1.21028300      -0.08053500
H        7.88139400       0.96554400      -0.19427600
H        4.84335000       3.84396200       0.84040900
C       -2.20120600       4.19090400      -0.22031000
C       -3.48356300       4.48483400       0.19419400
H       -3.97098400       5.39028600      -0.15331800
C       -4.17768500       3.61262400       1.06942900
H       -1.66228800       4.85132600      -0.89204400
H       -5.18744500       3.86113700       1.38039900
C       -2.24015100       0.01190300       2.42637200
C        3.75175200      -1.65719000      -0.96979700
N       -2.81620300      -0.66411400       3.17343200
N        4.07885500      -2.69832700      -1.36489100
C       -3.59322200       2.44954900       1.52593600
H       -4.13299000       1.78063400       2.18747500
C        5.87553800       0.25360700      -0.35465000
H        6.16302700      -0.73948000      -0.68272000
