59
Properties=species:S:1:pos:R:3 pbc="F F F"
Si       0.59584300      -0.91522000       0.46506700
O        2.10434000      -1.13392100      -0.20220900
C        3.35690900      -1.58419300       0.31740800
C        4.46124900      -1.16272100      -0.63160900
H        3.53162900      -1.12791900       1.29820600
C        4.30183100      -1.26371200      -2.01965600
C        5.68668100      -0.73002800      -0.11235400
C        5.35383200      -0.92847000      -2.87587200
H        3.34949000      -1.59261400      -2.42529900
C        6.74243500      -0.39888600      -0.96678600
H        5.81112100      -0.64644500       0.96520200
C        6.57775300      -0.49687800      -2.35203800
H        5.21941900      -1.00458000      -3.95204500
H        7.68773700      -0.05843800      -0.55193900
H        7.39521200      -0.23545400      -3.01903200
C        3.37785400      -3.13215800       0.47605500
C        2.53646100      -3.62780600       1.56111700
H        4.41779900      -3.43382300       0.65429500
H        3.07062700      -3.57305100      -0.48075200
C        1.84190800      -4.01289100       2.47334900
H        1.21339700      -4.34768100       3.26918800
Cl       1.13747400      -0.34263700       2.42261200
Cl      -0.25561900      -2.68851500      -0.32236200
O        0.25999400       0.41307900      -0.68635600
O       -1.24283500      -0.48532000       1.24826000
C       -1.62461400       1.75460000      -0.22188600
C       -2.50417000       0.59163500      -0.40290400
C       -3.19000700      -1.51307200       0.50446800
C        0.60991400       2.61482900      -0.05114600
C        0.13048000       3.91817400       0.22990600
C       -2.13533700       3.01094900       0.02507500
C       -1.29449900       4.12010600       0.25202100
C       -3.58466400       0.60074100      -1.25462400
C       -4.51040700      -0.46535300      -1.27329900
C       -4.32568800      -1.54924900      -0.34668800
H       -3.21207200       3.12813100       0.07579700
H       -3.71861900       1.44925700      -1.91656000
N       -0.25461400       1.59580400      -0.27060900
N       -2.30594200      -0.49022200       0.44026100
C       -1.80486700       5.41157500       0.52224800
C       -0.93494400       6.45708400       0.75699100
H       -1.32552200       7.44841600       0.96445700
C        0.46878500       6.25388600       0.73312200
H        1.13230400       7.09145600       0.92291100
H       -2.87943900       5.56087600       0.54296300
C       -5.62164800      -0.48611300      -2.14956800
C       -6.51477600      -1.53777100      -2.10221800
H       -7.36762400      -1.55420200      -2.77366900
C       -6.33311000      -2.60022000      -1.18181200
H       -5.75778500       0.33328400      -2.84838400
H       -7.04789500      -3.41680900      -1.16115200
C       -2.95562800      -2.51242000       1.49517700
C        2.00363700       2.33199500      -0.14169200
N       -2.87004900      -3.34163700       2.30305100
N        3.15626200       2.20576700      -0.19331500
C       -5.26029100      -2.61277400      -0.31367800
H       -5.12376300      -3.43107800       0.38536700
C        1.00209800       5.00868500       0.47475400
H        2.07598000       4.85737000       0.45882500
