59
Properties=species:S:1:pos:R:3 pbc="F F F"
Si      -0.91765900      -0.59762200       0.80391600
O       -1.82773300      -0.05934400      -0.45063700
C       -3.23564200       0.25130600      -0.52535900
C       -4.08835200      -0.99801000      -0.50473900
H       -3.50907800       0.90042700       0.31173600
C       -3.67015500      -2.16809100      -1.15124100
C       -5.33523100      -0.96893400       0.13007700
C       -4.48979100      -3.29963500      -1.15537600
H       -2.69903100      -2.19652100      -1.63711200
C       -6.15940000      -2.09720300       0.11961100
H       -5.65418500      -0.06434600       0.64280100
C       -5.73704300      -3.26599100      -0.52259400
H       -4.15419200      -4.20669800      -1.65128700
H       -7.12348800      -2.06752200       0.62052400
H       -6.37335900      -4.14706700      -0.52452200
C       -3.43365600       1.02314400      -1.85178700
C       -2.67507500       2.27083000      -1.92701900
H       -4.50555800       1.23292300      -1.95447500
H       -3.15143300       0.36028100      -2.67967700
C       -2.04696500       3.30288700      -1.99109800
H       -1.50847500       4.22198100      -2.06311500
Cl      -0.47703500      -2.60241400       1.29492800
Cl      -2.28543700      -0.35042700       2.47550800
O        0.41470100      -0.71610000      -0.66741400
O        0.17810600       0.59584700       1.56275400
C        2.50305100      -0.07208100       0.16845200
C        1.98534300       1.30096100       0.20739200
C        0.20076500       2.78986000       0.80234600
C        2.13621100      -2.27637800      -0.68733200
C        3.47168500      -2.65275200      -0.38409300
C        3.80355000      -0.38861700       0.48685500
C        4.32131300      -1.67998900       0.24873100
C        2.66540800       2.34071400      -0.38921300
C        2.14039800       3.64912700      -0.41552100
C        0.85522400       3.88498400       0.18661000
H        4.43425500       0.37987200       0.91950800
H        3.60886600       2.12612900      -0.87780900
N        1.67518700      -1.04242800      -0.37436700
N        0.77285000       1.56343300       0.80954500
C        5.65101200      -2.03327300       0.58083100
C        6.11768100      -3.29965700       0.29085500
H        7.13733700      -3.57206000       0.54484300
C        5.27930900      -4.25310800      -0.33947000
H        5.66713500      -5.24304000      -0.55794400
H        6.28841200      -1.29657900       1.06010700
C        2.82106800       4.72358400      -1.03528800
C        2.24709800       5.97855400      -1.05366200
H        2.76759300       6.80399000      -1.52895600
C        0.98003900       6.20692300      -0.45759900
H        3.78966700       4.54301700      -1.49040400
H        0.54938800       7.20271100      -0.48491800
C       -1.05634000       2.94119100       1.45482300
C        1.24721300      -3.14524300      -1.38712500
N       -2.07742500       3.15908000       1.96134400
N        0.61215700      -3.89374600      -2.00686800
C        0.28831700       5.18342100       0.15530900
H       -0.68014100       5.36290100       0.60941000
C        3.97742300      -3.94268100      -0.67695400
H        3.33882000      -4.67804000      -1.15468600
