59
Properties=species:S:1:pos:R:3 pbc="F F F"
Si      -0.33343300       1.71902300       1.12161300
O        0.69239600       2.47494300       0.09116700
C        0.95268400       2.36330500      -1.33507100
C        1.98740900       1.29050900      -1.59114300
H        0.02814500       2.12078400      -1.86175000
C        3.27372700       1.39022900      -1.03737300
C        1.67929800       0.19904300      -2.41190100
C        4.24087000       0.42607500      -1.32267300
H        3.51495600       2.22390200      -0.38441900
C        2.64640800      -0.77126000      -2.69372900
H        0.68015500       0.11427300      -2.83105700
C        3.93076100      -0.65425300      -2.15644700
H        5.23441800       0.51464400      -0.89228400
H        2.39800100      -1.61448600      -3.33232700
H        4.68300300      -1.40630400      -2.37535500
C        1.43438400       3.75316800      -1.80583800
C        0.39853300       4.77623400      -1.68198200
H        1.74511800       3.65917600      -2.85415500
H        2.32242600       4.03606900      -1.22775200
C       -0.48276100       5.59800900      -1.57971700
H       -1.25504400       6.32980100      -1.48528400
Cl       0.40536300       2.76052000       2.86894400
Cl      -2.35302500       2.22136000       1.48943300
O       -0.94144100       0.62908000      -0.43111100
O        0.13935000       0.16005700       1.87268400
C       -1.40810600      -1.54224200       0.27798800
C        0.03985100      -1.72399700       0.43741300
C        2.12141800      -0.90504900       1.29980100
C       -3.11730400      -0.14916200      -0.65478000
C       -4.09463100      -1.16117200      -0.46198200
C       -2.31626300      -2.55479700       0.48398300
C       -3.67832100      -2.39486200       0.14898800
C        0.69226800      -2.78735100      -0.14813800
C        2.08623600      -2.95463400      -0.03222200
C        2.83236900      -1.98356200       0.72082400
H       -1.96720600      -3.48939600       0.90868800
H        0.10950000      -3.48983000      -0.73277500
N       -1.83813800      -0.33750300      -0.25245400
N        0.77811100      -0.80686100       1.15497400
C       -4.63336700      -3.41556100       0.36828400
C       -5.94732700      -3.21927000      -0.00692000
H       -6.68104700      -4.00119000       0.16214400
C       -6.35241200      -2.00388300      -0.61362100
H       -7.39094800      -1.87032100      -0.89943100
H       -4.31469200      -4.34414600       0.83130600
C        2.76892800      -4.03633100      -0.63574300
C        4.13454200      -4.15726000      -0.47734600
H        4.66047500      -4.98859600      -0.93613500
C        4.86436100      -3.20703300       0.28120500
H        2.20326500      -4.76142400      -1.21195000
H        5.93749100      -3.32402200       0.39243900
C        2.78345300       0.07806900       2.08982200
C       -3.41267300       1.06646300      -1.33945000
N        3.41946500       0.81472300       2.72184600
N       -3.72368000       1.99738900      -1.95936400
C        4.23358400      -2.13139600       0.86860000
H        4.79780000      -1.40056900       1.43677600
C       -5.44730900      -0.98741800      -0.84341400
H       -5.76390800      -0.05718900      -1.30311800
