65
Properties=species:S:1:pos:R:3 pbc="F F F"
Si      -0.21497800       1.29191900       1.40221400
O        0.75122200       1.86934700       0.24138200
C        0.40808700       2.47600300      -1.05561900
C       -0.56831300       3.61446400      -0.89346800
H       -0.02675600       1.68426100      -1.67023800
C       -0.32671400       4.64449700       0.02662500
C       -1.72233700       3.64864200      -1.68440700
C       -1.23843500       5.69372900       0.15831700
H        0.56571400       4.61890000       0.64604900
C       -2.62967600       4.70399800      -1.56014400
H       -1.91166700       2.84291600      -2.38940200
C       -2.39003100       5.72600700      -0.63632100
H       -1.05037100       6.48577000       0.87807500
H       -3.52544700       4.72241200      -2.17486000
H       -3.09896800       6.54305800      -0.53248700
C        1.73732200       2.94624100      -1.67588200
C        2.67538900       1.86332900      -1.96529400
H        2.19532500       3.68020100      -1.00101100
H        1.48898600       3.47456400      -2.60504100
C        3.44882000       0.97169700      -2.22716500
H        4.13537000       0.19058000      -2.46803700
Cl      -2.17116700       0.98675800       0.87740800
Cl      -0.14098800       2.33296100       3.15980300
O       -0.38937600      -0.72488600      -1.98938800
O        0.47896600      -0.24616600       1.82276900
C       -0.52180000      -1.97054800      -0.04292800
C        0.93785000      -1.73421900       0.03366000
C        2.69242500      -0.51891500       1.15382400
C       -2.44553300      -1.59798100      -1.41029800
C       -3.25612900      -2.32748100      -0.49476900
C       -1.24374300      -2.69452100       0.88140100
C       -2.64819800      -2.88168300       0.67722800
C        1.86086000      -2.37695100      -0.78310700
C        3.24725200      -2.07045700      -0.65381200
C        3.67541200      -1.12600700       0.34153300
N       -1.11301400      -1.41171900      -1.18946200
N        1.38942000      -0.82266300       0.96448800
C       -3.46051800      -3.59220100       1.59456200
C       -4.81385700      -3.74723700       1.36245400
H       -5.42591000      -4.29165100       2.07489600
C       -5.40611900      -3.20039000       0.20189300
H       -6.47029000      -3.32883300       0.02822300
H       -3.01559200      -4.01351400       2.48857100
C        4.23317000      -2.65631400      -1.48591500
C        5.56427700      -2.32421800      -1.33276000
H        6.30746400      -2.77551300      -1.98267200
C        5.97604800      -1.40060200      -0.34018900
H        3.93791100      -3.36119000      -2.25339500
H        7.02797000      -1.15504300      -0.23689500
C        3.01750100       0.41996900       2.17240900
C       -2.96989100      -0.98544400      -2.58094800
N        3.34368700       1.18190400       2.98558300
N       -3.45967600      -0.50231500      -3.51837700
C        5.05046600      -0.80770300       0.48833100
H        5.36035200      -0.09327400       1.24325300
C       -4.64454700      -2.50180500      -0.71431400
H       -5.10333100      -2.08088200      -1.60322700
C       -0.56559900      -3.28345500       2.08720900
H       -0.93040200      -2.79406500       2.99781600
H       -0.80340200      -4.34940900       2.16626900
H        0.51935700      -3.17732300       2.04703600
C        1.39609000      -3.37250700      -1.80561300
H        1.53530700      -2.95379800      -2.80913000
H        1.99321900      -4.28739800      -1.73769600
H        0.34489000      -3.63331300      -1.68236200
