65
Properties=species:S:1:pos:R:3 pbc="F F F"
Si       0.93722400      -0.59936500       0.49264300
O        2.52821700      -0.55858300      -0.01067800
C        3.57286900      -1.53239200       0.07723100
C        4.77728000      -1.02734000      -0.68918100
H        3.23408100      -2.47546500      -0.36664200
C        5.21018900       0.29956700      -0.56336300
C        5.50562400      -1.91445100      -1.49056400
C        6.35553000       0.73215500      -1.23576900
H        4.63744800       0.99342200       0.04388700
C        6.65628600      -1.48469000      -2.15913400
H        5.16737000      -2.94339100      -1.59294600
C        7.08344300      -0.15919100      -2.03279900
H        6.67968800       1.76529700      -1.13924100
H        7.21234000      -2.18082300      -2.78183900
H        7.97445400       0.17895500      -2.55556500
C        3.96435200      -1.80410700       1.55887400
C        2.88450600      -2.43096500       2.31415000
H        4.25122900      -0.85185700       2.02149300
H        4.84905300      -2.45268400       1.55854100
C        1.94125500      -2.93397900       2.88191900
H        1.10461600      -3.37753900       3.37649900
Cl       1.31425900       0.64272500       2.22540400
Cl       0.51403400      -2.53734600      -0.39149200
O        0.33774300       0.48797700      -0.79051900
O       -0.80476400      -0.63401500       1.32718100
C       -1.77944900       1.34502300      -0.19064200
C       -2.31206000      -0.02844200      -0.35878200
C       -2.43090600      -2.17383100       0.70846700
C        0.16909100       2.74748900      -0.33558100
C       -0.59069200       3.89417100      -0.00273300
C       -2.57432200       2.41965900       0.19020600
C       -1.99030500       3.72349500       0.27388600
C       -3.29699000      -0.36942100      -1.27129000
C       -3.89715200      -1.66673200      -1.18744800
C       -3.48879700      -2.57036700      -0.14730900
N       -0.43193900       1.54538900      -0.41945800
N       -1.86182500      -0.96444600       0.55687400
C       -2.74592800       4.87040500       0.61817300
C       -2.14445500       6.11268100       0.68053900
H       -2.73850000       6.98253100       0.94311000
C       -0.76460000       6.26842400       0.40764600
H       -0.31171800       7.25292800       0.46488300
H       -3.80403200       4.77558700       0.82844200
C       -4.91621800      -2.08663200      -2.07507800
C       -5.50152200      -3.33064800      -1.93212800
H       -6.28243100      -3.63794200      -2.62080800
C       -5.09701800      -4.20949600      -0.90024100
H       -5.24456100      -1.42609900      -2.86839500
H       -5.56783800      -5.18273700      -0.80581900
C       -1.93165500      -3.00546700       1.75440400
C        1.56521500       2.81370900      -0.61436200
N       -1.60578300      -3.71703300       2.61148000
N        2.69164500       2.97260300      -0.84418200
C       -4.10528100      -3.83931400      -0.01667800
H       -3.78520500      -4.51345800       0.77073300
C        0.00709300       5.17780400       0.07067800
H        1.06543100       5.29130500      -0.13799300
C       -4.02743500       2.23419800       0.52649400
H       -4.23780000       2.69475800       1.49712600
H       -4.65384800       2.73764100      -0.21935900
H       -4.31428600       1.18467700       0.57441400
C       -3.74321200       0.60332100      -2.32495800
H       -3.66519100       0.13247600      -3.31081300
H       -4.79443100       0.87409300      -2.17357600
H       -3.14064700       1.51152700      -2.32828100
