65
Properties=species:S:1:pos:R:3 pbc="F F F"
Si       0.86768800      -0.77079700       0.44796000
O        2.42446000      -0.90776700      -0.13629100
C        3.66231100      -1.21781700       0.51099500
C        4.79450800      -0.94989900      -0.45785600
H        3.78562100      -0.57969700       1.39307000
C        4.74481700      -1.43432200      -1.77212600
C        5.92825600      -0.25334100      -0.02552500
C        5.81585700      -1.22018700      -2.64228400
H        3.86047800      -1.96624200      -2.11181300
C        7.00462800      -0.04251900      -0.89343800
H        5.96458400       0.12860300       0.99240800
C        6.94978500      -0.52543600      -2.20422300
H        5.76749800      -1.59457900      -3.66173300
H        7.87914300       0.50313700      -0.54850500
H        7.78280500      -0.35879000      -2.88228000
C        3.69383600      -2.70425100       0.96840400
C        2.69126800      -3.00373500       1.98537500
H        4.69871900      -2.91602300       1.35435900
H        3.53749100      -3.33941400       0.08766600
C        1.82125400      -3.19768300       2.80392700
H        1.04897300      -3.38153600       3.51826900
Cl       1.37864800       0.35905300       2.21630400
Cl       0.25811900      -2.64346200      -0.45382500
O        0.32741100       0.38086800      -0.81085100
O       -0.86918100      -0.65799600       1.31204100
C       -1.65472100       1.45493800      -0.12991500
C       -2.33730900       0.15401200      -0.31904700
C       -2.65127800      -2.00580000       0.67550900
C        0.42939300       2.63990700      -0.32076300
C       -0.19295700       3.85638600       0.04862900
C       -2.31713100       2.60060700       0.29278500
C       -1.59432300       3.83308500       0.36797200
C       -3.37482000      -0.04777000      -1.21445900
C       -4.10758600      -1.27648000      -1.15540700
C       -3.76651900      -2.25809600      -0.16274000
N       -0.30172500       1.51146000      -0.39924200
N       -1.96442400      -0.85537600       0.55169900
C       -2.21193500       5.05070400       0.74296500
C       -1.47947000       6.22079800       0.79648000
H       -1.96937800       7.14647500       1.08213000
C       -0.09894800       6.23056400       0.48514800
H        0.45880000       7.16000800       0.53738000
H       -3.26769100       5.06774100       0.98324600
C       -5.19101200      -1.55072800      -2.02344500
C       -5.89982300      -2.73161300      -1.90803500
H       -6.72897200      -2.92763800      -2.58082300
C       -5.55947000      -3.68899000      -0.92397900
H       -5.46843100      -0.82689600      -2.77985700
H       -6.12720200      -4.61105700      -0.85042100
C       -2.22260600      -2.91881800       1.68410300
C        1.81686900       2.55444400      -0.63659100
N       -1.96346800      -3.68715700       2.51464800
N        2.94890900       2.57968300      -0.89146100
C       -4.50915700      -3.46049300      -0.06012200
H       -4.23989400      -4.19547500       0.69104300
C        0.54118400       5.06740100       0.11615600
H        1.59922700       5.06856200      -0.12288500
C       -3.76964300       2.55940200       0.67662200
H       -3.90939800       3.07291700       1.63263700
H       -4.37459900       3.08460600      -0.07189800
H       -4.14442600       1.54101000       0.77533600
C       -3.73797100       1.00139300      -2.22693100
H       -3.74825400       0.55273900      -3.22598400
H       -4.74441400       1.38899600      -2.03173600
H       -3.03365100       1.83356100      -2.23100900
