77
Properties=species:S:1:pos:R:3 pbc="F F F"
Si       0.22431700      -1.09629700       0.95073500
O       -0.46776000      -1.80005100      -0.36591000
C       -1.53786600      -2.70907700      -0.60850300
C       -2.67006100      -2.00031200      -1.32779300
H       -1.91123300      -3.12160000       0.33303500
C       -2.45986900      -0.82350500      -2.05732000
C       -3.95838900      -2.54666100      -1.26658900
C       -3.52963400      -0.18786100      -2.69447600
H       -1.46397500      -0.39563200      -2.10747300
C       -5.02652600      -1.91870500      -1.91089400
H       -4.12902300      -3.45301800      -0.69006200
C       -4.81577400      -0.73124700      -2.62147400
H       -3.35993200       0.73685200      -3.23943300
H       -6.02409400      -2.34457000      -1.84420400
H       -5.64854700      -0.23155100      -3.10889000
C       -0.97990300      -3.86846000      -1.47423200
C        0.07723100      -4.61332400      -0.79481500
H       -1.81430400      -4.53420800      -1.72689400
H       -0.60234900      -3.44464000      -2.41390300
C        0.95738400      -5.19585900      -0.20420200
H        1.73516100      -5.71239100       0.31416100
Cl      -1.01576900      -2.06270600       2.51247100
Cl       2.02047600      -1.63195300       1.93930600
O        1.20607800      -0.25188800      -0.45016600
O       -0.29160600       0.50216600       1.54541300
C        1.56084000       1.96570800       0.13307100
C        0.11597600       2.14936900      -0.08503900
C       -2.14102900       1.57064800       0.58509700
C        3.42778800       0.48586400      -0.27692100
C        4.32372600       1.55824700       0.02728100
C        2.38971500       2.99940400       0.46904900
C        3.79424300       2.82247100       0.45829000
C       -0.35177100       3.04770500      -1.00551500
C       -1.74061900       3.23942800      -1.19263900
C       -2.65317000       2.51462600      -0.35472300
H        1.95758100       3.96255600       0.71660000
C        4.67470100       3.87619800       0.79809500
H        0.36290900       3.60405800      -1.60090800
C       -2.23980200       4.14247300      -2.15951100
C       -4.04390700       2.77334900      -0.47595200
C       -3.00449400       0.81416300       1.51137300
N        2.09959400       0.72077800      -0.16581400
N       -0.79881700       1.40593300       0.64692000
C        3.88345400      -0.83486900      -0.75710900
C        5.73075500       1.42514400      -0.11166100
C        6.04019200       3.69923300       0.69284900
C        6.56552100       2.47333400       0.22245600
H        6.14912600       0.50074100      -0.48835600
H        4.25779200       4.82275900       1.12914300
H        6.71512300       4.50907600       0.95321000
H        7.63944300       2.35670000       0.11349900
C       -3.60113400       4.33968500      -2.28232400
C       -4.50189000       3.66198500      -1.42762400
H       -4.74407100       2.27239100       0.17954000
H       -1.53755100       4.67683700      -2.79219900
H       -3.98440400       5.03189600      -3.02601100
H       -5.56778100       3.84779100      -1.51617100
C        4.81405400      -1.57631700      -0.01182100
C        3.41094900      -1.34059500      -1.97938500
C        4.78998200      -3.31055800      -1.69838400
C        3.87066300      -2.56973100      -2.44863700
C        5.25877900      -2.81245100      -0.47893800
H        5.16421000      -1.19527500       0.94153300
H        5.96571700      -3.38718100       0.11222600
H        5.13652900      -4.27396700      -2.06187700
H        3.50509100      -2.95268700      -3.39700400
H        2.68868100      -0.77358700      -2.55626100
C       -2.84091200       0.95763300       2.89951200
C       -4.03342900       0.00666700       1.00593500
C       -4.72471100      -0.51696800       3.26434000
C       -4.88037900      -0.66827400       1.88405000
C       -3.70917700       0.30332500       3.76908000
H       -2.04318800       1.58025800       3.28979800
H       -3.58640700       0.42414900       4.84136500
H       -5.39025400      -1.03797900       3.94706200
H       -5.66097600      -1.30952900       1.48552800
H       -4.15788200      -0.10100200      -0.06397100
