77
Properties=species:S:1:pos:R:3 pbc="F F F"
Si      -0.05917600      -1.08726800      -0.05211900
O        1.45828300      -0.81076200       0.54845600
C        2.26912200      -1.61335900       1.42514400
C        2.91821900      -2.76539800       0.68675700
H        1.65591300      -1.99596400       2.24501900
C        3.32288000      -2.62324000      -0.64595500
C        3.16839500      -3.96765000       1.35745400
C        3.96626600      -3.67553600      -1.30176600
H        3.12923400      -1.69322400      -1.16962600
C        3.81625800      -5.01989900       0.70444400
H        2.84262700      -4.08326900       2.38884400
C        4.21634900      -4.87621000      -0.62853000
H        4.27145700      -3.55682100      -2.33847600
H        3.99911200      -5.95296700       1.23128100
H        4.71379000      -5.69625000      -1.13994200
C        3.36900400      -0.70171900       2.02505100
C        2.85898200       0.51686300       2.64664300
H        3.91396600      -1.30297600       2.76353400
H        4.08136000      -0.44870500       1.23328100
C        2.43352200       1.53571100       3.14098100
H        2.06501100       2.43625600       3.58023900
Cl      -0.51018800      -1.93126800      -1.94692500
Cl      -0.49229000      -2.97143000       1.02331000
O       -1.35281800      -0.32416900       0.90869900
O        0.09572500       0.49573500      -1.05652200
C       -1.93968400       1.80731100       0.07938100
C       -0.56208800       2.27054400       0.29987900
C        1.71038800       2.12277800      -0.51404900
C       -3.52333400      -0.01946900       0.11850100
C       -4.53514400       0.84760700      -0.38197800
C       -2.89630500       2.66397300      -0.40079900
C       -4.21610400       2.22171100      -0.64628000
C       -0.28077700       3.39500300       1.02604600
C        1.01326900       3.96231700       0.99231400
C        2.00685400       3.35618900       0.15167600
H       -2.61549900       3.68856500      -0.61593000
C       -5.21670000       3.09016300      -1.14125400
H       -1.07381900       3.86740900       1.59462600
C        1.31939700       5.13933800       1.71508500
C        3.25138100       4.02171000      -0.00362800
C        2.70757100       1.39284000      -1.32138300
N       -2.28920000       0.48742100       0.32619400
N        0.45523500       1.63163800      -0.39696200
C       -3.78727300      -1.43730400       0.44230900
C       -5.86392800       0.39417400      -0.59538500
C       -6.49567400       2.61585500      -1.35687900
C       -6.81923700       1.26608400      -1.07719300
H       -6.11954000      -0.63485500      -0.37427500
H       -4.96303000       4.12642600      -1.34288200
H       -7.26391800       3.28304100      -1.73610400
H       -7.83337700       0.91406100      -1.23890500
C        2.56065000       5.72913300       1.58413600
C        3.51903600       5.17762400       0.70305600
H        3.99197500       3.62986100      -0.68797300
H        0.55813400       5.57458600       2.35586400
H        2.79517900       6.63338000       2.13776500
H        4.47588300       5.67352500       0.57195600
C       -4.09417500      -2.33248800      -0.59205300
C       -3.79708800      -1.86650000       1.77674600
C       -4.41938600      -4.08716700       1.04235700
C       -4.12407800      -3.18836400       2.07281900
C       -4.39719100      -3.66031600      -0.28845500
H       -4.08098200      -1.99233400      -1.62271700
H       -4.61822500      -4.35763700      -1.09118800
H       -4.66345800      -5.11958600       1.27646900
H       -4.13903900      -3.51891100       3.10726200
H       -3.55352300      -1.16904200       2.57159200
C        2.42445100       0.96361100      -2.62969800
C        3.98309400       1.15595100      -0.78060700
C        4.66766600       0.06824300      -2.82704100
C        4.95380100       0.49028400      -1.52572800
C        3.40452700       0.31161700      -3.37659700
H        1.44653000       1.14316100      -3.05928200
H        3.17842700      -0.01187700      -4.38836000
H        5.42256700      -0.45342800      -3.40840400
H        5.92729300       0.29367400      -1.08672100
H        4.19731500       1.47959100       0.23133500
