77
Properties=species:S:1:pos:R:3 pbc="F F F"
Si      -0.11735400      -1.39766600      -0.48053200
O        1.42757500      -1.54518600       0.06781800
C        2.09493100      -1.79358500       1.32955800
C        1.52352900      -0.93611900       2.44210500
H        3.11572000      -1.45080100       1.13416300
C        2.09896900       0.31950200       2.67834300
C        0.42118000      -1.33026000       3.21364800
C        1.57488000       1.17972800       3.64530900
H        2.96678300       0.62488700       2.10037900
C       -0.10549200      -0.47372800       4.18299200
H       -0.03898800      -2.29735500       3.04748600
C        0.46490500       0.78557500       4.39810500
H        2.03363600       2.15052800       3.81151100
H       -0.96274700      -0.79078700       4.77121100
H        0.05236400       1.45012200       5.15279800
C        2.19308500      -3.29419800       1.68074900
C        2.81590100      -4.07907800       0.61833600
H        2.79714000      -3.36144500       2.59542800
H        1.20541700      -3.70127800       1.91161100
C        3.33555900      -4.71085800      -0.27250400
H        3.78695300      -5.27166500      -1.06122100
Cl      -0.72448400      -2.10952900      -2.38871400
Cl      -1.00986600      -3.14291700       0.54622100
O       -1.15529000      -0.34405800       0.51127200
O        0.38664700       0.11823600      -1.49295400
C       -1.18312400       1.89077200      -0.26063800
C        0.27389400       1.96723800      -0.08326100
C        2.40465100       1.17528600      -0.90827100
C       -3.18816300       0.54053100      -0.18678300
C       -3.95453800       1.65371900      -0.63080000
C       -1.89990900       2.98174500      -0.67985300
C       -3.29725600       2.90509900      -0.87979300
C        0.87266900       2.94546000       0.66209200
C        2.27765300       3.09866900       0.64576300
C        3.05500700       2.22861900      -0.19157500
H       -1.36957900       3.90551100      -0.88206700
C       -4.05330800       4.01791600      -1.31617200
H        0.25422800       3.60956700       1.25472200
C        2.92038300       4.10167800       1.40812000
C        4.45388300       2.45305600      -0.28837300
C        3.13274600       0.20918400      -1.75427700
N       -1.85751000       0.69962400      -0.02557900
N        1.05849900       1.08468400      -0.81235600
C       -3.79838700      -0.76638500       0.13557800
C       -5.36166700       1.56629400      -0.80145700
C       -5.41813300       3.89789700      -1.49054400
C       -6.07234400       2.67014900      -1.22724700
H       -5.86925200       0.63247300      -0.59229100
H       -3.54550400       4.95836900      -1.50696700
H       -5.99832300       4.75255800      -1.82537000
H       -7.14767300       2.59801600      -1.35747300
C        4.28928300       4.26264600       1.32747200
C        5.05317600       3.44506500       0.46236700
H        5.05096300       1.84770700      -0.95787400
H        2.31897500       4.74170500       2.04675200
H        4.78169800       5.03190100       1.91473000
H        6.12401900       3.60393000       0.38048900
C       -4.35012400      -1.54071100      -0.89379500
C       -3.87580800      -1.19764900       1.46730900
C       -5.05527900      -3.18185600       0.73879000
C       -4.51329500      -2.40053300       1.76494500
C       -4.96809700      -2.75446700      -0.58891200
H       -4.28151100      -1.20067300      -1.92233500
H       -5.38107800      -3.36237200      -1.38853200
H       -5.54222100      -4.12407000       0.97415600
H       -4.57853800      -2.73250400       2.79702500
H       -3.44013100      -0.59521000       2.25808300
C        2.77339600       0.01706500      -3.09866700
C        4.21424600      -0.50872400      -1.21815500
C        4.55478600      -1.60554000      -3.34517000
C        4.91323200      -1.42017600      -2.00701000
C        3.48956900      -0.87964700      -3.88925200
H        1.93909900       0.56689000      -3.51887600
H        3.21018000      -1.01741200      -4.92975000
H        5.10077000      -2.31421900      -3.96155500
H        5.73206000      -1.98695300      -1.57416400
H        4.49454700      -0.36685700      -0.18022100
