57
Properties=species:S:1:pos:R:3 pbc="F F F"
Si       1.12618600      -1.30267000       0.10499500
O        2.02723200       0.06416800      -0.09515000
C        3.10646700       0.64313500       0.66019200
C        4.44190800       0.34364800       0.01519800
H        3.10105500       0.25419800       1.68116500
C        4.58391900       0.29411400      -1.37744500
C        5.56821900       0.16279800       0.82696500
C        5.83748100       0.06337500      -1.94971000
H        3.70979900       0.41942800      -2.00963100
C        6.82405200      -0.06277400       0.25632900
H        5.45781600       0.19069600       1.90873900
C        6.96104500      -0.11304400      -1.13460100
H        5.93744700       0.01903000      -3.03122400
H        7.69072600      -0.20827000       0.89587400
H        7.93521900      -0.29522000      -1.58071700
C        2.84385600       2.16863500       0.71635200
C        1.61770500       2.50216700       1.43811200
H        2.80204700       2.55421400      -0.31055700
H        3.70635000       2.63959700       1.20388900
C        0.59836600       2.74413500       2.04249400
H       -0.30060400       2.97120000       2.57206100
Cl       1.27554700      -3.01892700      -1.11629700
Cl       2.23908600      -2.20746700       1.78391900
O       -0.26191000      -1.13605400       1.22688400
O       -0.00216500      -0.66507300      -1.28776200
C       -2.26503500      -0.61991800       0.10796700
C       -1.64618600       0.65499000      -0.30451600
C        0.07495400       1.64308100      -1.63954300
C       -1.97402600      -2.69692800       1.27573000
C       -3.25331400      -3.08337300       0.98777400
C       -3.58340600      -0.99403400      -0.26150500
C       -4.09717400      -2.25417600       0.21140900
C       -2.18096700       1.93117200      -0.00332900
C       -1.56154800       3.08528700      -0.59858800
C       -0.43918100       2.89469600      -1.43807400
H        0.04558100       3.74508400      -1.90496200
H        0.94981300       1.40890900      -2.22765700
N       -1.52196800      -1.48181100       0.83077300
N       -0.53231300       0.56203000      -1.05912600
H       -1.25719900      -3.26932800       1.84797500
H       -3.60663500      -4.04206700       1.35106600
C       -3.27542700       2.10642900       0.88404300
C       -2.07709600       4.37176200      -0.31046100
C       -3.14777400       4.51177400       0.54778700
H       -3.53654200       5.50017900       0.77301700
C       -3.74190700       3.37480800       1.15241800
C       -4.39369900      -0.18959600      -1.10796900
C       -5.41487700      -2.63942700      -0.13341800
C       -6.18654100      -1.82411900      -0.93481500
H       -7.19576100      -2.12342400      -1.20046200
C       -5.66741000      -0.60230900      -1.43229000
H       -5.79815200      -3.58595600       0.23478300
H       -6.27992300       0.01366800      -2.08309600
H       -4.00724300       0.74095200      -1.50524200
H       -3.73032500       1.24445300       1.35780700
H       -4.57175400       3.50662200       1.83976000
H       -1.60678400       5.23839700      -0.76441100
