57
Properties=species:S:1:pos:R:3 pbc="F F F"
Si      -1.24670200      -1.68342800       0.43796900
O       -2.34399600      -0.98109100      -0.56293700
C       -3.51372600      -0.18304600      -0.31072600
C       -3.14618100       1.28629000      -0.30324800
H       -3.95399500      -0.45811500       0.65133700
C       -2.29297500       1.81609700      -1.28233600
C       -3.69460300       2.13792600       0.66283100
C       -1.99421500       3.17897600      -1.29257400
H       -1.85456300       1.15361700      -2.02281800
C       -3.40088900       3.50507400       0.65009700
H       -4.35100600       1.72741600       1.42666900
C       -2.55018300       4.02774700      -0.32820200
H       -1.32452600       3.58007500      -2.04864900
H       -3.82993700       4.15758400       1.40583800
H       -2.31414700       5.08847900      -0.33544800
C       -4.53157400      -0.49007400      -1.43401700
C       -4.98341400      -1.87957700      -1.42695200
H       -4.06880800      -0.24291500      -2.39815400
H       -5.38690400       0.18464200      -1.30215300
C       -5.34301600      -3.03393200      -1.39641500
H       -5.66340500      -4.05256300      -1.37350800
Cl      -2.53129900      -1.98936600       2.21425400
Cl      -0.77354600      -3.73296400       0.25228500
O       -0.05289600      -1.25443100      -1.01316800
O       -0.11971300      -0.79725800       1.51245100
C        2.00971300      -0.60227600      -0.16222300
C        1.32144800       0.61384900       0.31233500
C       -0.42940800       1.49582400       1.70099500
C        1.79588800      -2.60497600      -1.45340800
C        3.13504900      -2.86326500      -1.33917400
C        3.39104700      -0.84897200       0.03871500
C        3.97220400      -2.01234000      -0.57950600
C        1.70970100       1.92783400      -0.05566300
C        1.01228400       3.04062200       0.53464100
C       -0.05378400       2.78080200       1.42688200
H       -0.60065500       3.59611400       1.88318600
H       -1.24202300       1.20250700       2.34970600
N        1.26385800      -1.49307200      -0.85224000
N        0.26593400       0.45909600       1.13531400
H        1.08367600      -3.21235700      -1.99213500
H        3.54430900      -3.74091700      -1.82771100
C        2.73558800       2.17746000      -1.00678400
C        1.39056600       4.35923700       0.18711700
C        2.40419300       4.57029200      -0.72382700
H        2.68963300       5.58271300      -0.99286500
C        3.07025800       3.47422700      -1.32895600
C        4.20803900      -0.00870800       0.84165000
C        5.35305800      -2.27402700      -0.40321300
C        6.12451100      -1.42986800       0.36752900
H        7.18187100      -1.63461500       0.50464300
C        5.54560400      -0.29936100       0.99827100
H        5.78495000      -3.15084400      -0.87582100
H        6.16377800       0.34210100       1.61855600
H        3.77632200       0.85258900       1.33727500
H        3.24569900       1.34915300      -1.48294200
H        3.84966100       3.66028700      -2.06119600
H        0.85947000       5.19169700       0.63815100
