57
Properties=species:S:1:pos:R:3 pbc="F F F"
Si      -1.27239900      -0.50129800       0.73730900
O       -1.99176500       0.65975800      -0.18158500
C       -3.32041000       1.22094400      -0.09299800
C       -4.37051600       0.20904500      -0.49495700
H       -3.50470900       1.55800400       0.93071700
C       -4.20738800      -0.56353400      -1.65311000
C       -5.53089900       0.06271200       0.27260800
C       -5.19394500      -1.47398900      -2.03626700
H       -3.29999000      -0.45825000      -2.24134300
C       -6.52302100      -0.84409400      -0.11268200
H       -5.65095100       0.65382900       1.17731100
C       -6.35551300      -1.61428800      -1.26757600
H       -5.05852200      -2.07408600      -2.93238900
H       -7.41925600      -0.95520800       0.49199700
H       -7.12298900      -2.32403700      -1.56511000
C       -3.34345700       2.44321100      -1.03933800
C       -2.41394600       3.50082500      -0.64736800
H       -4.36844400       2.83468200      -1.04816200
H       -3.11973100       2.09774700      -2.05663500
C       -1.64637000       4.37267500      -0.30929100
H       -0.97814800       5.15382200      -0.02118600
Cl      -1.67782300      -2.57634900       0.64394600
Cl      -2.41022600      -0.24527200       2.61606500
O       -0.14267400      -0.65882400      -0.81966400
O        0.19509900      -0.04980000       1.65315800
C        2.07741000      -0.81362900      -0.13360900
C        1.95371700       0.60576500       0.24839500
C        0.74063100       2.20753700       1.56401600
C        1.00532400      -2.64293900      -1.23959900
C        2.14263600      -3.40082600      -1.16308800
C        3.26205000      -1.57288100       0.02970800
C        3.29713800      -2.90691900      -0.51047600
C        2.77862700       1.63408900      -0.27487600
C        2.57465000       2.98129000       0.19479800
C        1.53792700       3.22806100       1.12560300
H        1.35507100       4.23243500       1.49056000
H       -0.08392500       2.30289800       2.25667000
N        0.99188300      -1.37845800      -0.70844100
N        0.97844800       0.93529600       1.11731500
H        0.07570600      -2.95206100      -1.69418000
H        2.13977000      -4.39582900      -1.59462000
C        3.76716600       1.38748800      -1.26528700
C        3.39545400       4.02091000      -0.30499600
C        4.36412800       3.74526400      -1.24733100
H        4.99018800       4.54483800      -1.63129000
C        4.54080400       2.42578600      -1.73527800
C        4.39575300      -1.07354600       0.72523200
C        4.47425900      -3.68136400      -0.36607400
C        5.56538400      -3.16345800       0.29997400
H        6.46510900      -3.76051500       0.41318200
C        5.52049400      -1.85855300       0.85386400
H        4.49605300      -4.68517400      -0.77905800
H        6.38205000      -1.47645400       1.39249800
H        4.36868000      -0.08196900       1.16140800
H        3.90612900       0.38664500      -1.65451000
H        5.29168900       2.23227500      -2.49485200
H        3.24053000       5.03171700       0.05911400
