57
Properties=species:S:1:pos:R:3 pbc="F F F"
Si      -1.14373800      -0.30973100      -0.96500600
O       -2.56889800       0.17679600      -0.23485000
C       -3.87736600      -0.38106000      -0.10081400
C       -4.50401400       0.16542200       1.16762300
H       -3.81491500      -1.47173100      -0.02725300
C       -4.47914900       1.53950800       1.44537200
C       -5.16319300      -0.69873900       2.04898500
C       -5.10397800       2.03992700       2.58961700
H       -3.96171300       2.21129700       0.76599400
C       -5.79247000      -0.19993000       3.19467800
H       -5.18106000      -1.76575400       1.83737100
C       -5.76418800       1.17097400       3.46696100
H       -5.07858300       3.10675200       2.79747300
H       -6.29880000      -0.88091300       3.87400000
H       -6.25059500       1.56065700       4.35744700
C       -4.76634900      -0.01758500      -1.32379500
C       -4.42454800      -0.74229800      -2.54440400
H       -4.69581900       1.06564200      -1.48499400
H       -5.80802100      -0.23653000      -1.05584900
C       -4.15520700      -1.36940100      -3.54297600
H       -3.89892000      -1.91390900      -4.42509100
Cl      -1.25493400       0.93592600      -2.66778700
Cl      -1.48348900      -2.41144700      -0.93043100
O       -0.25773700       0.37068200       0.43241400
O        0.65457000      -0.70477000      -1.72435300
C        2.02016400       0.76309800       0.03313800
C        2.20722800      -0.69992900       0.00779600
C        1.72935300      -2.70906100      -1.19650600
C        0.45791600       2.57053300       0.26479800
C        1.45138700       3.49975300       0.12988500
C        3.08176000       1.68504100      -0.16240200
C        2.78872700       3.09371200      -0.09338400
C        3.09178300      -1.39515500       0.86869500
C        3.30787600      -2.79837200       0.63476200
C        2.61696600      -3.41812400      -0.43336400
H        2.77175500      -4.46990400      -0.64809700
H        1.14523600      -3.10948200      -2.01180200
N        0.77277000       1.23730700       0.21334400
N        1.52788100      -1.37465100      -0.94694200
H       -0.58882600       2.78697200       0.42796800
H        1.19872400       4.55302000       0.18221400
C        3.74972000      -0.76187700       1.95682000
C        4.19739300      -3.51164000       1.47491800
C        4.83456500      -2.86633900       2.51424200
H        5.51344700      -3.41563900       3.15937000
C        4.60203700      -1.48881600       2.75876100
C        4.40718900       1.26781400      -0.45913000
C        3.83521800       4.02992900      -0.27229400
C        5.11731900       3.59278800      -0.53284200
H        5.91775700       4.31269500      -0.67345600
C        5.39876900       2.20741000      -0.63770100
H        3.60627700       5.08927100      -0.21113900
H        6.40843400       1.88229700      -0.86821700
H        4.63496300       0.21344100      -0.55217600
H        3.57194300       0.28789300       2.15828400
H        5.09764200      -1.00268800       3.59331500
H        4.35913200      -4.56904700       1.28929600
