57
Properties=species:S:1:pos:R:3 pbc="F F F"
Si      -1.40235800      -0.17566300       1.38401000
O       -2.28981000       0.96390100       0.59125600
C       -2.61409700       1.11344100      -0.81610500
C       -3.50692800      -0.01130000      -1.28709800
H       -1.69373900       1.12289200      -1.40546900
C       -4.66582200      -0.34799000      -0.57434900
C       -3.18323400      -0.72218800      -2.44787800
C       -5.48785300      -1.38561200      -1.01760800
H       -4.91207200       0.19036200       0.33677500
C       -4.00840000      -1.75744800      -2.89759800
H       -2.27701900      -0.46824300      -2.99288300
C       -5.16194800      -2.09172300      -2.18148000
H       -6.38112700      -1.64516400      -0.45557800
H       -3.74737700      -2.30572300      -3.79916300
H       -5.80185300      -2.90008500      -2.52543400
C       -3.30370800       2.48882800      -0.95678500
C       -2.41326100       3.60525800      -0.64417500
H       -4.18537200       2.50657900      -0.30412100
H       -3.66196000       2.57702200      -1.99018100
C       -1.65068000       4.51078500      -0.39463100
H       -0.99389400       5.32294600      -0.17263900
Cl      -1.91265900      -2.21587100       1.60631500
Cl      -2.22371100       0.41600200       3.33276000
O       -0.53706100      -0.57671000      -0.29502800
O        0.23145100       0.20805200       2.01516600
C        1.74631900      -0.84086000       0.02958900
C        1.77249100       0.61084900       0.29435600
C        0.91270000       2.40043100       1.64643200
C        0.38883900      -2.67049800      -0.70723300
C        1.47527600      -3.50144800      -0.75295500
C        2.89361300      -1.67090200       0.05938900
C        2.75376100      -3.04191900      -0.35648100
C        2.55093500       1.52936100      -0.45514400
C        2.51475500       2.92157100      -0.08481800
C        1.68001500       3.31938300       0.98603400
H        1.62615900       4.36029300       1.28447600
H        0.23323700       2.61459500       2.45958100
N        0.54720900      -1.36867700      -0.30408200
N        0.98340200       1.08225200       1.28050100
H       -0.62361900      -2.94255100      -0.96737500
H        1.34003900      -4.52575900      -1.08275300
C        3.32808700       1.12980700      -1.57566700
C        3.29008800       3.85336900      -0.81582000
C        4.05305000       3.43097300      -1.88438000
H        4.64386700       4.14822700      -2.44573000
C        4.06150100       2.06658100      -2.27005700
C        4.15866000      -1.20420900       0.50549800
C        3.89063200      -3.88648700      -0.34807900
C        5.11085000      -3.39999300       0.07270700
H        5.98013600      -4.05036400       0.08183600
C        5.24066700      -2.05703200       0.50948300
H        3.77951000      -4.91798600      -0.66804800
H        6.20414200      -1.69872100       0.85840400
H        4.26507200      -0.18334100       0.85221000
H        3.33575900       0.09254500      -1.88683400
H        4.64925300       1.75734000      -3.12860400
H        3.26339000       4.89905100      -0.52585400
