57
Properties=species:S:1:pos:R:3 pbc="F F F"
Si      -1.32310600      -1.21727500      -0.68558300
O       -2.78305300      -1.04374400       0.11748400
C       -3.66108300       0.08669500       0.11703100
C       -3.44992700       0.97187400       1.33299000
H       -3.52475100       0.68037700      -0.79455400
C       -2.95093400       0.45822500       2.53540900
C       -3.82444000       2.31969100       1.26904000
C       -2.81532500       1.28579100       3.65412600
H       -2.65834600      -0.58585300       2.58738600
C       -3.69354600       3.14849700       2.38618100
H       -4.21112900       2.72410100       0.33605300
C       -3.18583400       2.63272200       3.58370900
H       -2.42245200       0.87748000       4.58202700
H       -3.98319900       4.19424400       2.32113500
H       -3.07987000       3.27529800       4.45394600
C       -5.11523600      -0.45712800       0.12785600
C       -5.46796900      -1.21506800      -1.07004500
H       -5.79335000       0.39811300       0.23976400
H       -5.23188400      -1.08265000       1.02243200
C       -5.75466500      -1.83259300      -2.06994400
H       -6.00389900      -2.38146000      -2.95154400
Cl      -1.88315400      -0.82742500      -2.67038300
Cl      -1.09280800      -3.15755300       0.12362600
O       -0.62156100       0.19679600       0.16702400
O        0.50887400      -1.43322900      -1.51001500
C        1.58738800       0.76480000      -0.43532500
C        2.01606700      -0.56132700       0.04732900
C        2.05740700      -2.88095800      -0.49093100
C       -0.23634900       2.23541400      -0.90434800
C        0.59163700       3.20644300      -1.38599000
C        2.49628800       1.70582800      -0.97552200
C        1.98269000       2.97380200      -1.43464200
C        2.97092000      -0.75746100       1.06740700
C        3.48096200      -2.08850100       1.27844700
C        3.02333500      -3.13155400       0.44327400
H        3.41465900      -4.13884800       0.52826200
N        0.26428300       1.04558400      -0.42065000
N        1.51567700      -1.62050300      -0.64259100
H        0.15615400       4.13324200      -1.74144600
C        3.42408500       0.30487300       1.89714300
C        4.43951000      -2.30718800       2.29870300
C        4.86330100      -1.25530700       3.08279500
H        5.59361900      -1.42693300       3.86763000
C        4.34898500       0.05306300       2.88446300
C        3.88647200       1.43452600      -1.11751700
C        2.87650500       3.94078800      -1.95559900
C        4.22200400       3.65711800      -2.04657200
H        4.90556400       4.39826600      -2.44908600
C        4.72367800       2.39390400      -1.63880900
H        2.47998700       4.89441400      -2.28950900
H        5.78185800       2.17848800      -1.74698200
H        4.28501800       0.47144900      -0.82561600
H        3.02568400       1.30352900       1.75970100
H        4.68429200       0.86224200       3.52541300
H        4.82331000      -3.31066500       2.45379700
F       -1.54509100       2.36158900      -0.85970500
F        1.60778600      -3.79873600      -1.32062800
