57
Properties=species:S:1:pos:R:3 pbc="F F F"
Si       1.87358100       0.68750600       1.06444400
O        3.24548500       0.74930800       0.19436900
C        3.81554600      -0.40173300      -0.53604200
C        2.81548200      -0.93191600      -1.53730000
H        4.04412700      -1.17551100       0.20351400
C        2.42652500      -0.16482000      -2.64489400
C        2.19703900      -2.16722300      -1.30609300
C        1.42899100      -0.62686800      -3.50343300
H        2.88550600       0.80339900      -2.82348000
C        1.19428200      -2.62995400      -2.16313600
H        2.49400100      -2.75846800      -0.44339100
C        0.80783000      -1.85820300      -3.26131200
H        1.13128500      -0.02603400      -4.35876400
H        0.70916400      -3.58194900      -1.96683400
H        0.02452200      -2.21178400      -3.92563000
C        5.12401900       0.09108500      -1.17686700
C        6.12552000       0.50568800      -0.19649900
H        4.89717200       0.91916400      -1.85893800
H        5.51677000      -0.73160500      -1.78769100
C        6.94740200       0.83525600       0.62684200
H        7.67628200       1.13109600       1.34950300
Cl       1.61627000       2.44674400       2.06259500
Cl       1.83622800      -0.95662300       2.29461100
O        0.56962100       0.44624000      -0.04653200
O       -1.23137200       0.50590800       2.64218400
C       -1.72084000       0.82425200       0.06254100
C       -1.80880700      -0.52475700       0.66211000
C       -1.60537600      -1.79591400       2.64590800
C       -0.27799700       2.48588500      -0.89191300
C       -1.32612400       3.29305800      -1.21966500
C       -2.84156500       1.61033000      -0.26037700
C       -2.64425700       2.88071900      -0.91306800
C       -2.12199300      -1.68062900      -0.08532200
C       -2.16012800      -2.94155700       0.60019000
C       -1.89607400      -2.95523900       1.99274400
H       -1.91688600      -3.88037700       2.55893000
N       -0.48542500       1.28502900      -0.24265500
N       -1.54439600      -0.55757900       1.99795100
H       -1.12388500       4.23223700      -1.72166700
C       -2.38404300      -1.64077400      -1.48028200
C       -2.45558300      -4.11824400      -0.12885300
C       -2.70981100      -4.05012300      -1.48475800
H       -2.93644200      -4.95509400      -2.04036200
C       -2.67529500      -2.80528300      -2.15917700
C       -4.15943000       1.17393700       0.04978700
C       -3.77297500       3.66929000      -1.23712300
C       -5.03953700       3.21743600      -0.92563200
H       -5.90364800       3.82547600      -1.17579600
C       -5.23354100       1.96825100      -0.27997300
H       -3.62579200       4.62481900      -1.73034800
H       -6.24044500       1.63953300      -0.04332200
H       -4.30268100       0.22034600       0.54542300
H       -2.34694900      -0.69502000      -2.01058600
H       -2.87281800      -2.76840300      -3.22621900
H       -2.47832600      -5.06869300       0.39631300
F        0.98145800       2.76819700      -1.16855800
F       -1.34926200      -1.74328500       3.94488800
