57
Properties=species:S:1:pos:R:3 pbc="F F F"
Si      -1.58952200      -1.42850100       0.84804700
O       -2.75306400      -0.50755700       0.14817600
C       -2.88954700       0.12842800      -1.15173500
C       -2.32833300       1.53200600      -1.10878500
H       -2.36525200      -0.45639500      -1.90976300
C       -2.82220300       2.47179800      -0.19187200
C       -1.32692500       1.91572900      -2.00887200
C       -2.32883100       3.77795200      -0.18615500
H       -3.58784700       2.17730000       0.52061800
C       -0.83167400       3.22312500      -2.00429100
H       -0.93458000       1.18371000      -2.71027500
C       -1.33578100       4.15762600      -1.09581000
H       -2.71790100       4.49867100       0.52814100
H       -0.05143300       3.50878000      -2.70440000
H       -0.94939700       5.17298600      -1.08863400
C       -4.39766400       0.12741500      -1.48629100
C       -4.93981900      -1.22044600      -1.64182900
H       -4.53169400       0.69619000      -2.41519800
H       -4.93456100       0.66595700      -0.69575300
C       -5.35999800      -2.34723300      -1.77022000
H       -5.73984800      -3.33958800      -1.87879300
Cl      -2.73500400      -1.70324100       2.67871200
Cl      -1.25986800      -3.49178300       0.54849500
O       -0.46353900      -1.05140500      -0.74126700
O       -0.26397800      -0.68897100       1.80694300
C        1.73412300      -0.73479400      -0.04399100
C        1.26424900       0.54719100       0.51407000
C       -0.25903200       1.64284400       1.99839300
C        1.17732900      -2.54966200      -1.48557000
C        2.46290100      -3.01249200      -1.48292000
C        3.06954200      -1.18431300       0.04205600
C        3.44140100      -2.36400600      -0.69761500
C        1.80416600       1.79537600       0.13280900
C        1.30751600       2.98572400       0.77755800
C        0.26625000       2.87119800       1.72201300
H       -0.15362000       3.73978900       2.21465200
N        0.81006900      -1.44975700      -0.73647900
N        0.24471700       0.50695700       1.40347800
H        2.70472400      -3.87932400      -2.08745800
C        2.78755500       1.91992600      -0.88844700
C        1.84819700       4.24485600       0.42153200
C        2.81667600       4.32802200      -0.55451000
H        3.22412000       5.29555000      -0.83119200
C        3.27656700       3.16184900      -1.22047400
C        4.04440100      -0.52655100       0.84161500
C        4.77753000      -2.83010200      -0.63055000
C        5.70183300      -2.16416900       0.14571200
H        6.72415500      -2.52583600       0.19842300
C        5.33096600      -1.01296200       0.88876100
H        5.05314100      -3.71682300      -1.19263600
H        6.07057300      -0.51476900       1.50745300
H        3.76793000       0.34658900       1.42102400
H        3.14291600       1.03900300      -1.40821300
H        4.02051000       3.25277000      -2.00544300
H        1.47345900       5.13488100       0.91642700
F        0.22211700      -3.08260700      -2.21890700
F       -1.25950500       1.45060800       2.82986000
