57
Properties=species:S:1:pos:R:3 pbc="F F F"
Si      -1.12940100      -1.28514400      -0.05460300
O       -1.98892500       0.11860900      -0.00635100
C       -3.09233300       0.60936000      -0.79355700
C       -4.41358200       0.30212700      -0.12520100
H       -3.07131100       0.15771800      -1.78827700
C       -4.55566500       0.37183900       1.26685100
C       -5.52659700      -0.00841700      -0.91537800
C       -5.79758700       0.13107100       1.85962000
H       -3.69059100       0.59810100       1.88261700
C       -6.77120400      -0.24336600      -0.32412800
H       -5.41483000      -0.07384600      -1.99538200
C       -6.90896200      -0.17383700       1.06578700
H       -5.89817400       0.17996000       2.94085500
H       -7.62789900      -0.48895800      -0.94624600
H       -7.87424600      -0.36247300       1.52825500
C       -2.88625800       2.13649200      -0.94420600
C       -1.66768200       2.47305800      -1.67785000
H       -2.87356500       2.58990100       0.05522300
H       -3.76166500       2.53935800      -1.46861500
C       -0.65521400       2.71964000      -2.29199800
H        0.23658000       2.95038400      -2.83224800
Cl      -1.30513200      -2.87458200       1.31576200
Cl      -2.19018300      -2.31403600      -1.67075900
O        0.30182500      -1.19596400      -1.13956100
O       -0.00973800      -0.52574400       1.33001000
C        2.27658900      -0.53403800      -0.03657700
C        1.61813700       0.75488000       0.25404200
C       -0.10143000       1.81509000       1.51794000
C        2.06666900      -2.71460400      -1.00059600
C        3.35086000      -3.04484800      -0.67670900
C        3.59683000      -0.83205900       0.37288300
C        4.15356000      -2.11634900       0.02102200
C        2.11981600       2.00903900      -0.15484100
C        1.47440100       3.19639200       0.34475700
C        0.36943300       3.06019800       1.21192400
H       -0.13649900       3.92516400       1.62531700
N        1.55137100      -1.47522400      -0.68675700
N        0.50214400       0.68236200       1.01999200
H        3.72272600      -4.02564800      -0.94999400
C        3.20940300       2.13490800      -1.05931500
C        1.96063200       4.46609700      -0.05187600
C        3.02523700       4.55541300      -0.92278000
H        3.39107700       5.52997000      -1.23132800
C        3.64546900       3.38520400      -1.43388700
C        4.37916800       0.07251800       1.14468200
C        5.48146900      -2.42633700       0.40383200
C        6.22107300      -1.51501800       1.12616900
H        7.23776200      -1.75595900       1.42101800
C        5.66195700      -0.26749200       1.50736700
H        5.89566500      -3.39094900       0.12785800
H        6.25241100       0.42452600       2.09919600
H        3.96139400       1.02320300       1.45092100
H        3.68157600       1.24644800      -1.46187300
H        4.47025200       3.47907200      -2.13318900
H        1.47409000       5.35749300       0.33118400
F        1.24395600      -3.52655000      -1.62824700
F       -1.12704700       1.61189600       2.31833700
