57
Properties=species:S:1:pos:R:3 pbc="F F F"
Si       1.08987000      -1.21702000      -0.01744100
O        1.93907000       0.19080500       0.08912300
C        3.05436800       0.58718500       0.90401000
C        4.37684800       0.22469700       0.26059900
H        2.98655600       0.10855600       1.88466300
C        4.51126000       0.07815800      -1.12468800
C        5.50430000       0.07670800       1.07908200
C        5.75915600      -0.21388900      -1.68385700
H        3.63868500       0.17972900      -1.76136500
C        6.75239100      -0.20971000       0.52161800
H        5.40027000       0.17753400       2.15725700
C        6.88283200      -0.35556700      -0.86402700
H        5.85207000      -0.33260400      -2.76039700
H        7.61877700      -0.32828600       1.16712200
H        7.85167300      -0.58497700      -1.29984200
C        2.93505800       2.11918000       1.10254500
C        1.74283000       2.49765500       1.85840400
H        3.83383400       2.45690000       1.63303400
H        2.93906200       2.60205800       0.11739000
C        0.75458500       2.77672300       2.49757600
H       -0.11368700       3.03783000       3.06137200
Cl       1.31555500      -2.66265200      -1.53113700
Cl       2.14813100      -2.37698200       1.51170900
O       -0.35727600      -1.24886400       1.04540500
O       -0.00721200      -0.33266400      -1.34897200
C       -2.28708800      -0.44560000      -0.00793600
C       -1.60097700       0.85471300      -0.16012500
C        0.07860600       2.03231100      -1.39522900
C       -2.17182300      -2.72009300       0.76740700
C       -3.46813200      -2.94397400       0.37706400
C       -3.60676000      -0.64720100      -0.47549200
C       -4.21817400      -1.93211800      -0.25546500
C       -2.09378900       2.05896400       0.38578800
C       -1.46250200       3.28720200      -0.01386000
C       -0.39846200       3.23520900      -0.93781000
C       -4.33570400       0.35388700      -1.17565600
C       -5.54643900      -2.15754600      -0.69373500
C       -3.16315200       2.09220500       1.32032500
C       -1.93328800       4.51226500       0.51911400
H        0.06659500       4.14903200      -1.28866200
Cl       1.33904100       1.92370800      -2.55111400
N       -1.60889600      -1.46752900       0.56311800
N       -0.50476800       0.85545300      -0.95439300
Cl      -1.21510700      -3.92488000       1.51328900
H       -3.90267700      -3.92120500       0.55217800
C       -2.97495700       4.51483000       1.42220800
C       -3.58675700       3.29989700       1.82806000
H       -3.62863800       1.16731200       1.64050800
H       -1.45471800       5.43683200       0.21269300
H       -3.33002200       5.45373500       1.83593800
H       -4.39526600       3.32441800       2.55187000
C       -6.23505400      -1.15719200      -1.34521800
C       -5.62088500       0.09736400      -1.59622300
H       -3.87869800       1.31232600      -1.38641600
H       -6.00003100      -3.12711600      -0.51504200
H       -7.25197400      -1.33086500      -1.68331300
H       -6.17028500       0.86350800      -2.13391800
