57
Properties=species:S:1:pos:R:3 pbc="F F F"
Si      -1.27819400      -1.66233600       0.32953000
O       -2.34550600      -0.40773400       0.41297900
C       -3.29689300       0.08655100      -0.57044700
C       -2.55870000       0.88286000      -1.62564200
H       -3.79995100      -0.76160600      -1.04006500
C       -1.99788600       2.13370500      -1.33310700
C       -2.38220300       0.34214800      -2.90552800
C       -1.26084500       2.82513500      -2.29530900
H       -2.13292100       2.56913700      -0.34868100
C       -1.64555900       1.03212600      -3.87284600
H       -2.81104500      -0.62879000      -3.13522800
C       -1.07832300       2.27285100      -3.56792000
H       -0.82968300       3.79192300      -2.05298000
H       -1.51293800       0.59939300      -4.86093200
H       -0.50174400       2.80918100      -4.31696600
C       -4.34342000       0.91734500       0.19869200
C       -5.12616900       0.11485600       1.13593100
H       -5.00707700       1.38123400      -0.54196100
H       -3.84077900       1.73003800       0.73626900
C       -5.76651300      -0.56716200       1.90229700
H       -6.33376400      -1.16740200       2.57959200
Cl      -1.16672000      -3.24279500       1.71972300
Cl      -2.27310000      -2.87746500      -1.20376600
O        0.04803100      -1.35495800      -0.84081400
O       -0.20802800      -0.75376800       1.66435800
C        1.91193600      -0.31604400       0.12312100
C        1.03618700       0.81534000       0.49667300
C       -0.65796000       1.53507700       2.03166700
C        2.10011800      -2.49414900      -0.88218600
C        3.45155500      -2.51360200      -0.64613300
C        3.29253800      -0.31670700       0.43593900
C        4.08556200      -1.44290800       0.01547200
C        1.26606900       2.14319800       0.07606300
C        0.51971500       3.19227800       0.71553900
C       -0.41088500       2.84936800       1.71854900
C        3.91638300       0.72873800       1.17229000
C        5.47501000      -1.46184400       0.29293300
C        2.18625200       2.46748900      -0.95508200
C        0.74034000       4.53580500       0.32418400
H       -0.96397300       3.62201800       2.23974500
Cl      -1.78440700       1.07060200       3.23298300
N        1.35882500      -1.38762700      -0.49182900
N        0.05063500       0.53619700       1.38298400
Cl       1.28283400      -3.78012000      -1.65762300
H        4.02321500      -3.37634500      -0.96723000
C        1.64970500       4.82192900      -0.67199000
C        2.36728500       3.78292200      -1.31922500
H        2.72701600       1.67717500      -1.46208600
H        0.17801200       5.32520200       0.81274200
H        1.81221600       5.85138900      -0.97605500
H        3.06088500       4.02858900      -2.11701700
C        6.05355300      -0.41831200       0.98230200
C        5.26667200       0.67284500       1.43338700
H        3.33062500       1.56293000       1.53626600
H        6.06462100      -2.31158900      -0.03623900
H        7.11745000      -0.43471900       1.19767500
H        5.73490100       1.47183900       1.99933900
