63
Properties=species:S:1:pos:R:3 pbc="F F F"
Si      -1.05034700      -0.48161400      -0.44021500
O       -2.60401300      -0.21018400       0.12440700
C       -3.86815600      -0.23431200      -0.54157300
C       -4.92611000       0.26931500       0.41712000
H       -3.83402100       0.42404500      -1.41727000
C       -5.01573800      -0.23921900       1.72047300
C       -5.85487300       1.22350800      -0.01278500
C       -6.02135500       0.20490800       2.58176300
H       -4.28820900      -0.97223500       2.05784000
C       -6.86612500       1.66621900       0.84652200
H       -5.78279100       1.62181000      -1.02255800
C       -6.95053200       1.15747800       2.14587600
H       -6.08186400      -0.19121700       3.59227500
H       -7.58140900       2.40936900       0.50357200
H       -7.73288500       1.50246100       2.81694500
C       -4.21718300      -1.67226300      -1.02194700
C       -3.29088400      -2.15502600      -2.04025900
H       -5.23942300      -1.65846200      -1.41968700
H       -4.20633600      -2.34071500      -0.15255400
C       -2.47811300      -2.49679800      -2.86963800
H       -1.77262800      -2.80518700      -3.60929600
Cl      -1.27436700       0.87737200      -2.14958000
Cl      -0.97473900      -2.44326400       0.53989800
O       -0.20746300       0.42089400       0.83212600
O        0.53571200      -0.85675200      -1.37299700
C        1.93276100       0.92854400       0.07426400
C        2.24801400      -0.51901700       0.15854900
C        1.95058600      -2.67431400      -0.89470600
C        0.29416500       2.67363100       0.45835700
C        1.22048600       3.61932400       0.08401700
C        2.88932700       1.87559000      -0.35972200
C        2.51781000       3.26634600      -0.34253600
C        3.27965300      -1.01902700       0.98274300
C        3.64856400      -2.40177900       0.83488200
C        2.98697300      -3.17692700      -0.14107700
C        4.17967200       1.50564900      -0.83166900
C        3.45967500       4.23951200      -0.76174800
C        3.94403400      -0.21649400       1.95106300
C        4.67845600      -2.93209800       1.65201500
H        3.28788600      -4.20589300      -0.30631100
C        1.23776500      -3.43029700      -1.96668200
N        0.70056800       1.35360900       0.42623300
N        1.58402400      -1.36153700      -0.66639700
C       -1.09715300       2.97017400       0.90953100
H        0.92568100       4.66264400       0.10977700
C        4.70865900       3.85137000      -1.19557700
C        5.06447500       2.47797000      -1.23876700
H        4.46079400       0.46088700      -0.87759300
H        3.17472000       5.28687100      -0.74071800
H        5.42713800       4.59882200      -1.51821300
H        6.04580700       2.19102600      -1.60337100
C        4.93349000      -0.76840400       2.73244200
C        5.30677900      -2.12985700       2.58019600
H        4.95497000      -3.97535100       1.53441100
H        3.65803300       0.82095700       2.08010500
H        5.43110700      -0.15804000       3.47949300
H        6.09233200      -2.54010000       3.20757300
H        0.17282700      -3.52197200      -1.73859000
H        1.32855400      -2.90132200      -2.92234200
H        1.68155500      -4.42396000      -2.05537900
H       -1.25002400       2.61485300       1.93474200
H       -1.26245400       4.04831100       0.86527200
H       -1.82643700       2.45678200       0.27559900
