63
Properties=species:S:1:pos:R:3 pbc="F F F"
Si      -0.13449600      -2.05388700       0.76673700
O       -0.77110800      -1.69784100      -0.67030600
C       -2.06208000      -2.02889000      -1.27497300
C       -2.79073000      -0.74610500      -1.59263800
H       -2.64212000      -2.62740900      -0.56686300
C       -2.15388500       0.26998600      -2.32025800
C       -4.11644400      -0.57377600      -1.17996000
C       -2.83751400       1.44788500      -2.62125900
H       -1.11891000       0.14805700      -2.62177300
C       -4.80247800       0.60580500      -1.48542600
H       -4.60860700      -1.35854700      -0.61197000
C       -4.16298800       1.61860000      -2.20495200
H       -2.33336000       2.23727300      -3.17156400
H       -5.82998200       0.73384300      -1.15624200
H       -4.69113500       2.53981800      -2.43576100
C       -1.77231000      -2.86599000      -2.53714600
C       -1.09027500      -4.11992400      -2.22680600
H       -2.73092300      -3.06322800      -3.03313800
H       -1.16824200      -2.25916500      -3.22291200
C       -0.52140700      -5.14170300      -1.91973200
H       -0.01928300      -6.04890900      -1.66319900
Cl      -1.04232300      -3.53620400       1.84378400
Cl       1.86041300      -2.48784800       0.60880200
O        1.21935200       0.61854600      -1.85654500
O       -0.25262500      -0.61258800       1.73621000
C        1.57619200       0.91925700       0.39671400
C        0.16085500       1.33842200       0.48023500
C       -2.02966900       0.91273600       1.39628300
C        3.36548200       0.25993100      -1.03976600
C        4.22856300       0.23181000       0.02046000
C        2.43700700       0.92676200       1.52345500
C        3.80767800       0.56115300       1.32965100
C       -0.29666100       2.56681800      -0.05839100
C       -1.67164800       2.93279500       0.11261100
C       -2.50703600       2.07702700       0.86209800
C        2.00094400       1.28574500       2.82349200
C        4.69473500       0.54200500       2.43184100
C        0.57473700       3.44508900      -0.75236400
C       -2.14844000       4.14610400      -0.43202300
H       -3.53968100       2.34968800       1.03434400
C       -2.89350200       0.02656400       2.28815500
N        2.01595900       0.60857500      -0.86139300
N       -0.70935000       0.55760900       1.16005700
C        3.79038800      -0.09989500      -2.45454100
H        5.26011100      -0.05295300      -0.15065400
F        5.11001600      -0.41866400      -2.48034600
F        3.61579900       0.93088200      -3.31792500
F        3.11403000      -1.16982200      -2.93586800
F       -2.34095300      -0.13879400       3.50989900
F       -3.08445900      -1.20004100       1.74353600
F       -4.10949100       0.58227200       2.45859400
C        4.24099700       0.88101400       3.69101700
C        2.88985200       1.25770400       3.88059300
H        0.97274700       1.58492300       2.99367500
H        5.73028600       0.25959700       2.26633500
H        4.91892200       0.86497300       4.53868000
H        2.54500900       1.53132700       4.87330000
C        0.08122700       4.62180500      -1.27352600
C       -1.28383900       4.97284300      -1.11958700
H       -3.19343600       4.40769900      -0.30136000
H        1.62021400       3.19006300      -0.87410600
H        0.74730400       5.29125200      -1.80849100
H       -1.64570200       5.90479400      -1.54265100
