63
Properties=species:S:1:pos:R:3 pbc="F F F"
Si       1.01929200      -1.20932600      -0.22787800
O        1.91572500       0.10495500       0.20325800
C        2.97174500       0.26034700       1.16670900
C        4.33301500      -0.11591500       0.61136700
H        2.76488100      -0.36528100       2.03993900
C        4.56686200      -0.32450500      -0.75081700
C        5.39756500      -0.24927500       1.51514000
C        5.84798900      -0.65718900      -1.20475000
H        3.75152700      -0.24069700      -1.45814700
C        6.67692600      -0.57701800       1.06389900
H        5.22021200      -0.10540400       2.57885800
C        6.90670200      -0.78087900      -0.30191100
H        6.01442400      -0.82167100      -2.26623800
H        7.49091200      -0.68120500       1.77657800
H        7.90075300      -1.04094300      -0.65598400
C        2.93672400       1.74118800       1.62152100
C        1.74344900       2.05312400       2.40477100
H        3.83163100       1.92877500       2.22667000
H        3.00526200       2.38456200       0.73556100
C        0.75847800       2.26099300       3.07492100
H       -0.11023200       2.46066600       3.66243800
Cl       1.28697500      -2.28402800      -2.01301700
Cl       1.93825300      -2.70902900       1.06211900
O       -0.47007700      -1.39390100       0.76850500
O        0.00381100      -0.01143900      -1.39258500
C       -2.28164800      -0.14153000      -0.02930400
C       -1.44619700       1.07697200       0.04321400
C        0.25445300       2.31428400      -1.09186400
C       -2.48072300      -2.50783500       0.31117200
C       -3.79802400      -2.47280500      -0.05837600
C       -3.62689400      -0.06647800      -0.47828700
C       -4.41111900      -1.27060900      -0.47414700
C       -1.78961600       2.19868500       0.83278500
C       -1.06110500       3.41689200       0.62073000
C       -0.07726300       3.44535400      -0.39389700
C       -4.21330000       1.13622500      -0.95363900
C       -5.75986200      -1.23146200      -0.89584200
C       -2.79885900       2.14892500       1.82703500
C       -1.37477200       4.55700600       1.39504000
H        0.42318500       4.37646500      -0.62873800
C        1.17592700       2.34527200      -2.31358200
N       -1.74685700      -1.33226100       0.30185200
N       -0.39504900       1.12913300      -0.79762900
C       -1.79945000      -3.80382200       0.75679500
H       -4.37273300      -3.39034900      -0.04023500
F       -2.68949900      -4.82192000       0.72256900
F       -1.33352600      -3.71682100       2.01985100
F       -0.77980200      -4.12972000      -0.06330100
F        2.26149400       1.56300300      -2.21068200
F        1.60796400       3.61174400      -2.52116100
F        0.48549300       1.96323300      -3.41718700
C       -6.30926900      -0.04226900      -1.33079800
C       -5.52801100       1.13863900      -1.36916700
H       -3.63157300       2.04754700      -1.00180600
H       -6.34315700      -2.14645400      -0.88041200
H       -7.34340000      -0.01021500      -1.65901300
H       -5.96871200       2.05941200      -1.73778200
C       -3.06949100       3.27475200       2.57635400
C       -2.36272000       4.48360100       2.35659500
H       -0.82376200       5.47676000       1.22658900
H       -3.33768600       1.22570900       2.00757400
H       -3.83133600       3.23418700       3.34840800
H       -2.59966000       5.35596400       2.95752700
