63
Properties=species:S:1:pos:R:3 pbc="F F F"
Si       1.12947900      -1.64066500      -0.41642600
O        2.26381000      -0.48988100      -0.19343700
C        3.14107200       0.11544100       0.78101400
C        2.34499700       0.84091800       1.84328700
H        3.69888300       0.85278400       0.19475500
C        1.48585200       0.14721700       2.70796000
C        2.46642700       2.22903500       1.96930800
C        0.74005100       0.83858100       3.66325700
H        1.39512200      -0.93112100       2.62892700
C        1.73324900       2.92155600       2.93712900
H        3.13571200       2.76841100       1.30298300
C        0.86032000       2.22808100       3.77853400
H        0.06957300       0.29317200       4.32219400
H        1.83464300       3.99918900       3.02390500
H        0.27780800       2.76575000       4.52160100
C        4.17640000      -0.85714200       1.39063600
C        4.96451700      -1.55591600       0.37999500
H        4.83453100      -0.24262300       2.01909800
H        3.67733000      -1.57310900       2.04928000
C        5.60274900      -2.11919000      -0.47903500
H        6.16573000      -2.62693700      -1.23134100
Cl       1.17132600      -2.91793200      -2.08444500
Cl       1.78138400      -3.16054700       1.00618200
O       -0.32770400      -1.44557100       0.62523700
O        0.25741700      -0.42175600      -1.69983800
C       -1.87759100       0.10738100      -0.20784700
C       -0.79710200       1.11033600      -0.32796400
C        1.03563300       1.80085700      -1.70038300
C       -2.55276400      -2.11451900       0.39638600
C       -3.85734200      -1.82199100       0.10699100
C       -3.20821200       0.43435400      -0.58564900
C       -4.23029200      -0.55780000      -0.39820300
C       -0.83663100       2.36621400       0.32233500
C        0.09286800       3.37167300      -0.10832500
C        0.99281100       3.05627400      -1.15128400
C       -3.56119400       1.68292400      -1.16288900
C       -5.57025800      -0.26131300      -0.73771900
C       -1.75610300       2.66109200       1.35907500
C        0.04820700       4.65501700       0.48223200
H        1.66058200       3.81999800      -1.53035900
C        1.89208500       1.47113400      -2.92799600
N       -1.58706100      -1.13655600       0.22102000
N        0.16235900       0.83555600      -1.23512200
C       -2.12865500      -3.48490200       0.92724400
H       -4.61199600      -2.58310100       0.25754800
F       -3.20920700      -4.29403000       1.01699500
F       -1.58546600      -3.39810000       2.16002200
F       -1.24388800      -4.07932600       0.10104600
F        2.79265900       0.49688700      -2.73147300
F        2.57217700       2.57998700      -3.31079700
F        1.09355600       1.10740800      -3.96252000
C       -5.88701600       0.97212500      -1.26977700
C       -4.87544500       1.93796500      -1.49345000
H       -2.80459900       2.43210000      -1.35643200
H       -6.33225500      -1.01879200      -0.58330100
H       -6.91441300       1.20179200      -1.53430900
H       -5.13649100       2.89228100      -1.93965400
C       -1.76992200       3.92197000       1.91724600
C       -0.87612600       4.92550500       1.47086800
H        0.75042800       5.41231300       0.14914900
H       -2.43707000       1.89559600       1.71265000
H       -2.47006000       4.14641600       2.71557000
H       -0.91148900       5.91130200       1.92389100
