63
Properties=species:S:1:pos:R:3 pbc="F F F"
Si      -1.15807600      -0.32109700      -1.21211600
O       -2.24524500      -0.94421700      -0.16343300
C       -2.85159200      -0.50222400       1.07141800
C       -4.26658300      -0.03296900       0.81169800
H       -2.27481600       0.31253600       1.51041600
C       -5.10058000      -0.70446200      -0.09207200
C       -4.76479200       1.06310000       1.52594800
C       -6.41818200      -0.28005800      -0.27911900
H       -4.70856000      -1.54412500      -0.65825800
C       -6.08490200       1.48551200       1.34325500
H       -4.11437600       1.58955900       2.22064400
C       -6.91416000       0.81396400       0.43946600
H       -7.05774900      -0.80111900      -0.98688400
H       -6.46137600       2.34086400       1.89824300
H       -7.93888600       1.14424900       0.29062900
C       -2.83439200      -1.70607800       2.04272000
C       -1.49096100      -2.08255900       2.47858600
H       -3.44112400      -1.43885400       2.91706000
H       -3.32996500      -2.55186200       1.54940900
C       -0.37950100      -2.37557200       2.85547200
H        0.59174400      -2.64143400       3.20942800
Cl      -1.30235900       1.53578800      -2.20595200
Cl      -1.89398000      -1.46501200      -2.90742200
O       -0.32266600       0.56756600       0.36874200
O        0.45160300      -1.05922400      -1.50984400
C        1.86084900       0.95700500      -0.26375000
C        2.10917100      -0.46978100       0.03693800
C        1.51285400      -2.76821200      -0.30948800
C        0.42372000       2.79152100       0.28011200
C        1.37212700       3.68482000      -0.14331200
C        2.85059500       1.83292700      -0.76599000
C        2.57883200       3.24379700      -0.73585800
C        3.09805100      -0.84311200       0.98629300
C        3.31183700      -2.24360400       1.22627000
C        2.49804900      -3.17620500       0.54788700
C        4.07481500       1.36542600      -1.30693000
C        3.54191100       4.14576900      -1.24384600
C        3.85449600       0.10452400       1.72568700
C        4.29708900      -2.65629900       2.15255100
H        2.63793700      -4.23563000       0.72079700
C        0.59914600      -3.76560700      -1.02494100
N        0.65914100       1.43629100       0.12421400
N        1.34587300      -1.41407900      -0.54540400
C       -0.81616300       3.21313000       1.07321200
H        1.19127400       4.74511900      -0.01759000
F       -0.79316600       2.63127600       2.30146200
F       -1.98534800       2.89616400       0.49138000
F       -0.80208200       4.55283800       1.25602900
F        0.73705500      -3.69936800      -2.36531200
F       -0.69428600      -3.55955900      -0.70782500
F        0.91587300      -5.02532100      -0.64631400
C        4.72494100       3.66424700      -1.76923400
C        4.98797000       2.27199000      -1.80348300
H        4.27763100       0.30121300      -1.34644600
H        3.33421300       5.21082800      -1.21462200
H        5.46281700       4.35585500      -2.16357200
H        5.91913900       1.91487600      -2.23178200
C        4.80121900      -0.33008100       2.62916900
C        5.03416900      -1.71164200       2.83746700
H        4.45041700      -3.71769200       2.31980800
H        3.68546800       1.16532700       1.59474700
H        5.37157900       0.39920400       3.19542200
H        5.78821500      -2.02508400       3.55260100
