63
Properties=species:S:1:pos:R:3 pbc="F F F"
Si      -0.42642600      -1.95790700       0.15961300
O       -1.85319900      -1.16633800      -0.01681400
C       -2.91888400      -1.18798600      -0.99613100
C       -2.92544700       0.17039000      -1.67342500
H       -2.70431900      -1.95683100      -1.74325400
C       -3.88324000       1.15790200      -1.41157200
C       -1.89110500       0.45143800      -2.57919300
C       -3.81508300       2.39856100      -2.05353700
H       -4.69321000       0.96844100      -0.71420800
C       -1.81250900       1.69336800      -3.20979400
H       -1.14416100      -0.31063900      -2.78738100
C       -2.77970900       2.67010100      -2.95042800
H       -4.56841100       3.15363000      -1.84566200
H       -1.00510600       1.89664000      -3.90775500
H       -2.72356500       3.63708300      -3.44189900
C       -4.22603900      -1.55383200      -0.27123000
C       -4.18614100      -2.89454800       0.30632300
H       -5.04711800      -1.48051500      -0.99550100
H       -4.42028000      -0.81949900       0.51902700
C       -4.12795700      -4.00423400       0.78227000
H       -4.07437200      -4.98502900       1.20148300
Cl       0.00183800      -3.32181500       1.69594600
Cl      -0.63919400      -3.45543700      -1.41269200
O        0.89168000      -1.24175500      -0.84225500
O        0.00133400      -0.63117000       1.53715700
C        1.89323200       0.62323400       0.16636900
C        0.55615300       1.24218300       0.30370100
C       -1.44960700       1.22411900       1.60568800
C        3.21650200      -1.23584700      -0.57532500
C        4.36626000      -0.59624900      -0.19994300
C        3.05463400       1.30001500       0.62364000
C        4.33072700       0.67309600       0.41682200
C        0.20814100       2.47681900      -0.29204900
C       -1.02834900       3.08652000       0.10798900
C       -1.81531600       2.43989700       1.08845600
C        3.00108700       2.54920300       1.29634900
C        5.51077200       1.32523300       0.84141400
C        1.02551400       3.11877600      -1.25613600
C       -1.39591000       4.33459500      -0.44431500
H       -2.71626400       2.91834400       1.45105500
C       -2.16756800       0.58932500       2.80116100
N        1.99869300      -0.60863600      -0.36843600
N       -0.29346500       0.62436700       1.14743600
C        3.23629200      -2.61148600      -1.24467700
H        5.31827900      -1.08199200      -0.37157500
F        4.51339600      -3.04089200      -1.36546600
F        2.70482000      -2.57025500      -2.48497900
F        2.56740600      -3.52658200      -0.51454600
F       -1.31604700       0.53312300       3.85799300
F       -2.64482500      -0.64555600       2.58893300
F       -3.21477300       1.37093100       3.16169500
C        5.42916300       2.55084000       1.47116700
C        4.16972600       3.15499900       1.70731300
H        2.04843500       3.02138700       1.49896500
H        6.46830700       0.84264500       0.67252300
H        6.33316000       3.05292500       1.80116800
H        4.12263000       4.10698400       2.22641600
C        0.63545300       4.33519400      -1.77597900
C       -0.56997600       4.95188100      -1.36147500
H       -2.33139200       4.79015400      -0.13690300
H        1.94539200       2.65023900      -1.58576800
H        1.25888900       4.82509800      -2.51723700
H       -0.85168200       5.91095300      -1.78450200
