75
Properties=species:S:1:pos:R:3 pbc="F F F"
Si      -0.88475900      -1.35449800       0.20932100
O       -1.99448300      -0.17395800      -0.09859600
C       -3.04620900      -0.03063300      -1.06165700
C       -4.41176300      -0.22918800      -0.43200000
H       -2.91836700      -0.75643300      -1.86917000
C       -4.61603100      -0.21347000       0.95155300
C       -5.51337200      -0.40880800      -1.28151200
C       -5.90231500      -0.37000600       1.47892900
H       -3.77142100      -0.09509600       1.62062300
C       -6.79823900      -0.56183100      -0.75763600
H       -5.36116100      -0.43752700      -2.35835500
C       -6.99710800      -0.54088700       0.62774100
H       -6.04542300      -0.36120000       2.55644500
H       -7.64145900      -0.70513200      -1.42830000
H       -7.99564900      -0.66462200       1.03843100
C       -2.91480000       1.39006700      -1.66791300
C       -1.67587400       1.56805600      -2.42046600
H       -3.77847300       1.55884500      -2.32200900
H       -2.97501300       2.12397700      -0.85525400
C       -0.64398600       1.68480600      -3.03982300
H        0.26863200       1.80281500      -3.58117900
Cl      -0.90681800      -2.60533500       1.91271400
Cl      -1.71712700      -2.91656400      -1.12402700
O        0.54844400      -1.32530600      -0.84548400
O       -0.00782600      -0.13996700       1.37632700
C        2.28922300      -0.07001500       0.06937200
C        1.39355700       1.10448500       0.02140200
C       -0.50140300       2.15492900       1.09147200
C        2.54507600      -2.44961000      -0.32616800
C        3.84622200      -2.36564400       0.11434900
C        3.60820500       0.02895400       0.57051700
C        4.41514100      -1.16029600       0.57319800
C        1.69274000       2.27428000      -0.70714800
C        0.85236900       3.41951900      -0.50094000
C       -0.20064500       3.32583000       0.43340500
C        4.14734900       1.23602700       1.09768800
C        5.74651300      -1.09586400       1.05622500
C        2.75749400       2.34026500      -1.64577200
C        1.11511500       4.60579500      -1.23059000
H       -0.81015900       4.19927700       0.63167900
C       -1.55212600       2.00559800       2.16247600
N        1.81559500      -1.26969300      -0.32967500
N        0.29567800       1.05735100       0.80691400
C        1.89164900      -3.70813400      -0.84176000
H        4.44516900      -3.26809500       0.12088400
C        6.24945700       0.09332400       1.53754100
C        5.44072000       1.25958600       1.56743900
H        3.53940600       2.13094200       1.13691000
H        6.35064100      -1.99791000       1.04742200
H        7.26811200       0.14075500       1.91043500
H        5.84658700       2.18124700       1.97261100
C        2.15472900       4.64451600      -2.13500100
C        2.97475900       3.50493100      -2.34704300
H        3.38037700       1.46954800      -1.81671300
H        0.48009000       5.47189400      -1.07090200
H        2.34881100       5.55203900      -2.69876800
H        3.77872300       3.55260600      -3.07495300
H        0.85677900      -3.71127100      -0.49120300
C        1.86743500      -3.69602800      -2.38769000
C        2.57387200      -4.97909000      -0.31648200
H        1.34524900      -4.59194500      -2.73918500
H        1.34532600      -2.81636900      -2.77241900
H        2.89150500      -3.71066200      -2.77833300
H        1.98530400      -5.84401800      -0.63718100
H        3.58425500      -5.09172900      -0.72652300
H        2.63211700      -4.98184100       0.77725200
C       -2.64098200       3.08266700       2.08661000
H       -2.01636600       1.02985300       2.02223700
C       -0.86423600       2.01457400       3.54836800
H       -3.11691600       3.11064500       1.10090800
H       -3.40921400       2.85651500       2.83230000
H       -2.23867300       4.07754400       2.30998800
H       -0.38630800       2.98459200       3.72800000
H       -1.62093600       1.84935300       4.32272300
H       -0.11108200       1.22467500       3.62266300
