75
Properties=species:S:1:pos:R:3 pbc="F F F"
Si      -1.13697200      -0.58986300      -1.22293800
O       -1.92727700      -1.60311800      -0.18766900
C       -2.50899200      -1.35897700       1.11386700
C       -3.66902900      -0.39134500       1.02223000
H       -1.75029200      -0.95561500       1.78991300
C       -4.55667800      -0.43154900      -0.06073800
C       -3.86954700       0.54680500       2.04089600
C       -5.62380900       0.46679200      -0.12842000
H       -4.39744300      -1.15159600      -0.85815500
C       -4.93866300       1.44417500       1.97664600
H       -3.17532800       0.58480000       2.87632800
C       -5.81681700       1.40754000       0.88900500
H       -6.30135100       0.43635400      -0.97760500
H       -5.07889100       2.17682000       2.76698500
H       -6.64350300       2.11065700       0.83187800
C       -2.96268100      -2.73517800       1.65324600
C       -1.84083200      -3.62564900       1.94601000
H       -3.54253200      -2.56047300       2.56818800
H       -3.63958700      -3.19024600       0.91939200
C       -0.89492600      -4.33244800       2.20944500
H       -0.07279100      -4.97088700       2.44647800
Cl      -1.88245900       1.17241200      -2.13756200
Cl      -1.67920800      -1.83509800      -2.96986500
O       -0.54949800       0.41112900       0.30520800
O        0.57328800      -0.87487100      -1.62767900
C        1.56873900       1.17877300      -0.18521600
C        2.00786900      -0.20717900       0.08066400
C        1.78238800      -2.55199000      -0.49807300
C       -0.23621100       2.74556800       0.17343000
C        0.61435900       3.77353500      -0.16740700
C        2.44975700       2.20678800      -0.57766300
C        1.94284300       3.55154000      -0.58759200
C        2.93897300      -0.50470800       1.10207700
C        3.30258100      -1.88180800       1.29441300
C        2.71016000      -2.86057900       0.47073300
C        3.79193700       1.95624300      -0.97388300
C        2.80222100       4.60761100      -0.98353700
C        3.49078700       0.48815100       1.95979800
C        4.23306800      -2.21828200       2.30978800
H        2.98409000      -3.89972500       0.60528800
C        1.15516200      -3.55070300      -1.43778900
N        0.27241400       1.45898800       0.08312000
N        1.46119600      -1.20975700      -0.63761500
C       -1.60981500       2.93490400       0.76742000
H        0.24002800       4.78883000      -0.10797400
C        4.10101400       4.33770800      -1.35859900
C        4.59492800       3.00619800      -1.35849000
H        4.17008200       0.94010900      -0.98718900
H        2.41809300       5.62314900      -0.98729600
H        4.75613800       5.14819700      -1.66359900
H        5.61655200       2.81522500      -1.67194200
C        4.76670900      -1.23285900       3.11175400
C        4.38567700       0.12374000       2.93989100
H        3.20162900       1.52542000       1.84690500
H        4.50766500      -3.26003700       2.44463700
H        5.47735700      -1.49271100       3.89050200
H        4.80104200       0.88286300       3.59526300
H       -2.21050000       2.05668700       0.53465800
C       -1.45339800       3.00830400       2.30424800
C       -2.33196700       4.17238800       0.22022000
H       -2.44266500       3.11561200       2.75993100
H       -0.98444200       2.09976800       2.69765600
H       -0.84025300       3.87291900       2.58391800
H       -3.34612700       4.19157300       0.63161900
H       -1.83113600       5.10056100       0.51877700
H       -2.39847900       4.13940100      -0.87207500
C        1.23515500      -4.98847300      -0.90861700
H        0.10015100      -3.28839300      -1.54531200
C        1.81797100      -3.44613300      -2.83165800
H        0.79924000      -5.07005800       0.09174500
H        0.67198100      -5.63639900      -1.58712100
H        2.26972500      -5.35020700      -0.88204100
H        2.87784600      -3.71763000      -2.76307000
H        1.32009400      -4.14588600      -3.51066600
H        1.72860000      -2.43850000      -3.24464900
