75
Properties=species:S:1:pos:R:3 pbc="F F F"
Si       1.15150400      -0.91504800      -0.29931500
O        1.93834300       0.50236300      -0.01606700
C        3.04078000       0.98191300       0.78235000
C        4.35867700       0.35116500       0.35727800
H        3.07950500       2.04578100       0.51687300
C        4.63987200       0.26446700      -1.01517500
C        5.31706900      -0.10127600       1.27162900
C        5.84444800      -0.27716900      -1.46432500
H        3.90315300       0.61072600      -1.73431000
C        6.52827700      -0.63936700       0.82383600
H        5.12709200      -0.05296900       2.33876300
C        6.79560700      -0.73175700      -0.54390700
H        6.04163800      -0.34287700      -2.53121200
H        7.25809300      -0.99212200       1.54785800
H        7.73469600      -1.15457800      -0.89092800
C        2.73603500       0.91027200       2.29360800
C        1.47419300       1.55197900       2.65312200
H        3.55742500       1.41524600       2.81717600
H        2.73127200      -0.13390100       2.62172800
C        0.42962600       2.07828500       2.96009300
H       -0.48964300       2.54334200       3.23874900
Cl       1.41010700      -2.12874900      -2.01149100
Cl       2.34253100      -2.24630100       1.00217500
O       -0.22986700      -1.21624400       0.78608600
O       -0.02541400       0.05918200      -1.44170400
C       -2.23411400      -0.38016200      -0.06834800
C       -1.61959700       0.96424400      -0.03731500
C       -0.00739200       2.40018900      -1.12433300
C       -1.93449700      -2.75775500       0.31070500
C       -3.23287100      -2.96885000      -0.09284700
C       -3.55790700      -0.57956300      -0.52533200
C       -4.07398900      -1.92099700      -0.51884700
C       -2.13879800       2.03715500       0.71764300
C       -1.55795100       3.33418700       0.51583500
C       -0.52624400       3.47341500      -0.43663000
C       -4.37415200       0.47710400      -1.01857200
C       -5.40040000      -2.15716300      -0.96005400
C       -3.17099900       1.87019700       1.67997300
C       -2.03988500       4.43047100       1.27429600
H       -0.11131500       4.45638300      -0.62541200
C        1.03056700       2.49376900      -2.21476800
N       -1.49018600      -1.44411600       0.30462300
N       -0.55995500       1.15928700      -0.85130000
C       -1.00154600      -3.83566800       0.80312600
H       -3.61244800      -3.98347500      -0.09239800
C       -6.17585300      -1.11004300      -1.40843100
C       -5.65460000       0.20971700      -1.44656500
H       -3.98738200       1.48753200      -1.06334900
H       -5.78385200      -3.17281600      -0.94542400
H       -7.19067300      -1.29289900      -1.74858600
H       -6.27261200       1.01806700      -1.82462400
C       -3.04303300       4.24212700       2.20136600
C       -3.60635400       2.95515600       2.40763300
H       -3.59752000       0.88798600       1.84815900
H       -1.59888500       5.41015100       1.11759000
H       -3.40471100       5.08200400       2.78682900
H       -4.38493100       2.82542100       3.15284300
H        0.00047700      -3.60037100       0.43699000
C       -0.95646700      -3.82339100       2.34878200
C       -1.38443200      -5.22659600       0.27865500
H       -0.23356100      -4.57267500       2.68769400
H       -0.65053200      -2.84668600       2.73263100
H       -1.94284600      -4.07840800       2.75381000
H       -0.60560300      -5.93462500       0.57804900
H       -2.33220900      -5.57121000       0.70789600
H       -1.46520200      -5.23631300      -0.81357500
C        1.94627700       3.71468100      -2.05888700
H        1.64348500       1.59476400      -2.16328700
C        0.31216300       2.50571800      -3.58423600
H        2.42778300       3.73186500      -1.07519700
H        2.72417600       3.66719300      -2.82732700
H        1.39579100       4.65221800      -2.19813700
H       -0.31850700       3.39789300      -3.67577600
H        1.06296900       2.52477700      -4.38157800
H       -0.30959700       1.61375900      -3.71167100
