75
Properties=species:S:1:pos:R:3 pbc="F F F"
Si       1.19726300       0.35700700      -0.91527200
O        1.99800500       1.11298900       0.31581400
C        3.42939700       1.30156700       0.42473300
C        4.12351000      -0.03426500       0.58571900
H        3.79547400       1.80046900      -0.47796600
C        3.72332600      -0.92735300       1.59055500
C        5.15763400      -0.39706600      -0.28366200
C        4.34933500      -2.16762600       1.71916600
H        2.90788300      -0.65686200       2.25499700
C        5.78643800      -1.63971200      -0.15577000
H        5.45719200       0.28966800      -1.07174700
C        5.38158500      -2.52779800       0.84480200
H        4.03250500      -2.85637500       2.49769100
H        6.58296700      -1.91626300      -0.84139900
H        5.86422700      -3.49666400       0.94203700
C        3.67218800       2.21807700       1.64277300
C        3.12461200       3.56253700       1.47558700
H        4.75667900       2.27819200       1.79942800
H        3.24353700       1.73877600       2.53201100
C        2.68486500       4.67824100       1.31800100
H        2.30082700       5.66485000       1.18150400
Cl       1.68831400      -1.47729300      -1.85582200
Cl       2.09875100       1.53117100      -2.58402000
O        0.32734300      -0.55011300       0.52570300
O       -0.37709600       0.98447000      -1.43231500
C       -1.84037100      -0.93970800      -0.18624900
C       -2.08015500       0.49288100       0.08621000
C       -1.42523900       2.78827900      -0.35092000
C       -0.36997700      -2.79102200       0.31580700
C       -1.34335000      -3.65937400      -0.12524300
C       -2.83475900      -1.80292600      -0.69304200
C       -2.56381700      -3.21349300      -0.67681000
C       -3.07336300       0.90907300       1.00416100
C       -3.25437200       2.32112300       1.20037500
C       -2.41762300       3.21487900       0.50206800
C       -4.06590700      -1.32811800      -1.22172500
C       -3.54114600      -4.10809100      -1.18184500
C       -3.86554300      -0.00402400       1.75568700
C       -4.25013900       2.77577500       2.10165300
H       -2.54627500       4.28040300       0.64734000
C       -0.51706400       3.70112800      -1.13696100
N       -0.64263300      -1.43603300       0.19889400
N       -1.30322600       1.41656800      -0.51771100
C        0.90588300      -3.20062200       1.00962400
H       -1.15483200      -4.72350600      -0.05014100
C       -4.72858400      -3.62131700      -1.68564100
C       -4.98845400      -2.22567700      -1.71010700
H       -4.26485600      -0.26290700      -1.25195200
H       -3.33543000      -5.17418000      -1.16632600
H       -5.47421700      -4.30849700      -2.07408100
H       -5.92376500      -1.86328800      -2.12520800
C       -5.01962800       1.86781300       2.79591000
C       -4.81663300       0.47303100       2.62867300
H       -3.71663100      -1.07114100       1.64917300
H       -4.38443400       3.84439400       2.23847500
H       -5.77965700       2.21732300       3.48814800
H       -5.41540600      -0.22711100       3.20266200
H        1.69624600      -2.51933800       0.69473100
C        0.71760000      -3.02667300       2.53469400
C        1.33887300      -4.62937600       0.66209000
H        1.65552300      -3.27876900       3.04025500
H        0.45293600      -1.99460600       2.78492600
H       -0.06713100      -3.69788200       2.90273400
H        2.31487700      -4.81835400       1.11981500
H        0.63487800      -5.37244000       1.05460100
H        1.43016900      -4.76453100      -0.42084800
C       -0.44085100       5.10847400      -0.52984200
H        0.48572700       3.26609700      -1.11831500
C       -0.98275300       3.77425100      -2.61024700
H       -0.16680000       5.07522700       0.52911600
H        0.32187700       5.67667000      -1.07068800
H       -1.39397900       5.63986200      -0.63575600
H       -1.97752700       4.23187100      -2.66304200
H       -0.27964700       4.39937500      -3.17019400
H       -1.01284200       2.78568800      -3.07408500
