75
Properties=species:S:1:pos:R:3 pbc="F F F"
Si      -0.87564300      -1.65766300       0.71170500
O       -2.24086000      -0.76428200       0.45319400
C       -3.24040800      -0.85223600      -0.59282800
C       -2.66341500      -0.37358900      -1.90730700
H       -3.57298500      -1.88838800      -0.68818000
C       -2.10575300       0.90762200      -2.00790300
C       -2.66016800      -1.20953200      -3.02876700
C       -1.54029500       1.34560500      -3.20532500
H       -2.10943600       1.55913900      -1.14130200
C       -2.10186200      -0.77232100      -4.23438200
H       -3.08060800      -2.20834200      -2.94999500
C       -1.53653700       0.50343000      -4.32359300
H       -1.10514000       2.33921000      -3.26810300
H       -2.10071700      -1.43059600      -5.09916400
H       -1.09617400       0.84050100      -5.25833800
C       -4.43278100       0.01790600      -0.14137300
C       -5.03383300      -0.43377800       1.11088400
H       -5.17821300      -0.00262900      -0.94621500
H       -4.09702800       1.05758000      -0.04406500
C       -5.51494300      -0.82052900       2.15072700
H       -5.94414300      -1.16009300       3.06794600
Cl      -0.45905800      -2.77031700       2.46241700
Cl      -1.45782600      -3.46295400      -0.43894300
O        0.40152600      -1.37244300      -0.49492500
O       -0.18141700      -0.22157500       1.74424500
C        1.91392000       0.26422100       0.19107700
C        0.78654700       1.22112900       0.21987700
C       -1.16451700       1.90868200       1.47264700
C        2.63792300      -2.01687600      -0.20981500
C        3.92993300      -1.63961100       0.07656200
C        3.22867200       0.66392900       0.52914900
C        4.26970900      -0.32414900       0.45120400
C        0.76231900       2.39831400      -0.55842400
C       -0.25439900       3.36805600      -0.26676200
C       -1.16397500       3.09904700       0.77918300
C        3.55177200       1.97885200       0.96825700
C        5.60240300       0.04302000       0.76623800
C        1.67889800       2.63514200      -1.61748200
C       -0.31283000       4.55734300      -1.03569300
H       -1.91101200       3.84176700       1.03090700
C       -2.08224100       1.57386200       2.62234200
N        1.67237100      -1.02458400      -0.13198000
N       -0.19255200       0.98370600       1.12037000
C        2.22234300      -3.39742600      -0.65290900
H        4.70884400      -2.39018200       0.02091800
C        5.88840200       1.33076100       1.16381300
C        4.85503300       2.29736000       1.27520700
H        2.77478600       2.72597100       1.06819100
H        6.38285500      -0.70829000       0.69453100
H        6.90914600       1.61008800       1.40680500
H        5.09513000       3.30047400       1.61353700
C        0.59266800       4.76549900      -2.05485800
C        1.58769100       3.79728200      -2.34986800
H        2.43082100       1.89209600      -1.85580200
H       -1.08261900       5.28982400      -0.81268700
H        0.54211700       5.67434600      -2.64676100
H        2.27817500       3.97246300      -3.16889800
H        1.25506100      -3.61674200      -0.19508800
C        2.03137400      -3.41977400      -2.18784700
C        3.21726200      -4.47840800      -0.20844800
H        1.68542600      -4.41514300      -2.48545100
H        1.28933800      -2.68416800      -2.50888600
H        2.98528000      -3.21584400      -2.68834900
H        2.79854700      -5.45765200      -0.45946800
H        4.17663400      -4.38155000      -0.72959100
H        3.39530800      -4.44052100       0.87153000
C       -3.32729000       2.46841100       2.66233200
H       -2.40272000       0.53877400       2.48968300
C       -1.30097600       1.67760500       3.95450600
H       -3.87834300       2.44153700       1.71674700
H       -3.98819600       2.10812400       3.45565900
H       -3.06407300       3.50865400       2.88769800
H       -0.97763300       2.71152700       4.12339900
H       -1.96317500       1.38215400       4.77530800
H       -0.42583000       1.02224000       3.95917800
