75
Properties=species:S:1:pos:R:3 pbc="F F F"
Si      -0.85701700      -1.20729700      -0.32677200
O       -2.40428300      -1.30289200       0.31549100
C       -3.71510100      -1.04630900      -0.18121100
C       -4.43137000      -0.02220900       0.67802700
H       -3.67574100      -0.68222000      -1.21317600
C       -4.27159100      -0.00162300       2.06912200
C       -5.32283200       0.87480900       0.07813000
C       -4.99372100       0.90577600       2.84771400
H       -3.57010200      -0.68799600       2.53385700
C       -6.04689700       1.78403900       0.85467400
H       -5.44475300       0.86352500      -1.00278200
C       -5.88426200       1.80021300       2.24356400
H       -4.85854700       0.91884100       3.92616700
H       -6.72963200       2.48133600       0.37623700
H       -6.44207300       2.50872200       2.85007200
C       -4.51334000      -2.37988300      -0.16282000
C       -3.94460900      -3.41091400      -1.02648100
H       -5.54527200      -2.16253900      -0.46669400
H       -4.54764500      -2.73469700       0.87539900
C       -3.46061200      -4.25663600      -1.74326900
H       -3.03268300      -5.00150800      -2.37765600
Cl      -1.36521900      -0.99994400      -2.38783400
Cl      -0.25839200      -2.86640100       0.88224600
O       -0.47536700       0.30751700       0.53699100
O        0.92627200      -1.15273900      -1.10723200
C        1.53120700       1.25443700      -0.17289900
C        2.22362000       0.06459800       0.36844400
C        2.75794600      -2.24658300      -0.09285400
C       -0.58163400       2.37238200      -0.57618400
C        0.09805700       3.41320000      -1.16546100
C        2.24833500       2.29681400      -0.80606700
C        1.50035800       3.41726600      -1.30710700
C        3.20270600       0.13992200       1.38098000
C        3.98186500      -1.03807700       1.64361100
C        3.75321000      -2.18735800       0.85661600
C        3.65867400       2.26306400      -0.99505900
C        2.18687300       4.48439800      -1.93961900
C        3.42857200       1.31845800       2.14317900
C        4.97142800      -0.99648800       2.65809300
H        4.37486600      -3.06204000       1.00584100
C        2.53169800      -3.40064100      -1.03859500
N        0.18536800       1.31879300      -0.10231600
N        1.97644400      -1.11175300      -0.25097700
C       -2.06937000       2.34439900      -0.34069600
H       -0.47394800       4.25378600      -1.53932200
C        3.55598000       4.43444800      -2.08644700
C        4.29120800       3.31344500      -1.62026500
H        4.23219200       1.41067800      -0.65412600
H        1.61401700       5.32966800      -2.30857700
H        4.08002700       5.25162000      -2.57284800
H        5.36654600       3.28119400      -1.76482900
C        5.17200300       0.16032700       3.38094600
C        4.39374800       1.32009600       3.12479800
H        2.82942400       2.20287000       1.95831300
H        5.56037600      -1.88764800       2.85284500
H        5.92868100       0.18832400       4.15930600
H        4.55888800       2.21570100       3.71563600
H       -2.40601800       1.31228800      -0.44422500
C       -2.36385600       2.79468200       1.10761700
C       -2.84557300       3.20054200      -1.34922500
H       -3.43911100       2.72052000       1.28852900
H       -1.84589800       2.16196900       1.83334100
H       -2.04724400       3.83544200       1.24389000
H       -3.91420000       3.04090000      -1.17934900
H       -2.64034600       4.26807900      -1.21069000
H       -2.60632500       2.92285100      -2.38131700
C        3.06107200      -4.72985700      -0.48652600
H        1.45653600      -3.49489300      -1.19499000
C        3.18262200      -3.06065200      -2.40057600
H        2.62946700      -4.95293800       0.49502400
H        2.78631600      -5.53080200      -1.17988900
H        4.15396300      -4.72302500      -0.40037400
H        4.26828000      -2.95506500      -2.28895500
H        2.98145200      -3.87475200      -3.10526600
H        2.77397200      -2.13305700      -2.81345300
