75
Properties=species:S:1:pos:R:3 pbc="F F F"
Si      -0.91641100      -1.05173900      -0.76044600
O       -2.58847700      -0.94148200      -0.60324700
C       -3.48229000      -1.30446400       0.45713800
C       -4.21697300      -0.08468200       0.97985400
H       -2.93812500      -1.77958400       1.27926300
C       -4.90093700       0.76499900       0.09839300
C       -4.29463400       0.15451800       2.35564000
C       -5.65942000       1.82905600       0.58818000
H       -4.83376100       0.59004200      -0.97184900
C       -5.05541500       1.21912000       2.85056500
H       -3.76240600      -0.50055100       3.04191000
C       -5.74363900       2.05550900       1.96767100
H       -6.18677500       2.48125300      -0.10312900
H       -5.10861000       1.39463300       3.92184100
H       -6.33629000       2.88285700       2.34880100
C       -4.52677300      -2.30945600      -0.10340100
C       -3.97057900      -3.56635000      -0.59591500
H       -5.25449500      -2.51282800       0.69300800
H       -5.07096700      -1.80546100      -0.91245100
C       -3.52497600      -4.61181800      -1.01009100
H       -3.11816300      -5.53053100      -1.37176800
Cl      -1.09360600      -0.70349900      -2.85388000
Cl      -0.62520300      -2.80106100       0.42877400
O       -0.53130300       0.31968800       0.31777500
O        0.96604000      -1.10258700      -1.27856400
C        1.55694700       1.22194400      -0.16402300
C        2.14561100      -0.01999900       0.38313200
C        2.57407300      -2.35194500      -0.07875200
C       -0.46534000       2.48704000      -0.59554500
C        0.30215700       3.51548100      -1.09184000
C        2.36433100       2.25433500      -0.69324500
C        1.70762300       3.43851900      -1.17573900
C        3.02112700      -0.02546900       1.48918600
C        3.68967400      -1.25793900       1.80168500
C        3.46261900      -2.37733400       0.97250700
C        3.77947200       2.14847700      -0.80022300
C        2.48730400       4.49057400      -1.71910100
C        3.24885400       1.12275900       2.29618400
C        4.57643800      -1.29941600       2.90723700
H        4.00373600      -3.29575100       1.16638400
C        2.38131400      -3.47262000      -1.07095300
N        0.21472300       1.35590200      -0.17191700
N        1.89519900      -1.16166100      -0.29449300
C       -1.95388700       2.54916300      -0.37633600
H       -0.20146500       4.41297600      -1.43008800
C        3.85784200       4.36693400      -1.79430100
C        4.50341900       3.18722700      -1.33990300
H        4.28389200       1.24960300      -0.46758100
H        1.98510400       5.38417200      -2.07700100
H        4.45280100       5.17276500      -2.21347500
H        5.58206300       3.10092000      -1.42575300
C        4.78374200      -0.16974500       3.66990700
C        4.11279900       1.04390200       3.36511200
H        2.73353700       2.05009300       2.07387900
H        5.08360400      -2.23139200       3.13818800
H        5.46264600      -0.20464300       4.51667900
H        4.28023200       1.91803700       3.98671000
H       -2.37299000       1.55852500      -0.56172100
C       -2.20903200       2.90077600       1.10828900
C       -2.65157300       3.54863200      -1.30650600
H       -3.28544100       2.89277300       1.29395400
H       -1.73854400       2.17271100       1.77486100
H       -1.81342100       3.89921200       1.32898800
H       -3.73050000       3.47146900      -1.14331300
H       -2.35275800       4.58025200      -1.08741900
H       -2.43902900       3.33343100      -2.35928600
C        2.70359100      -4.84909700      -0.47529300
H        1.33683400      -3.46744500      -1.38294200
C        3.24992400      -3.18396400      -2.31801100
H        2.12389500      -5.03417600       0.43535100
H        2.45208200      -5.61769900      -1.21275600
H        3.77034100      -4.94692800      -0.24290600
H        4.31298500      -3.18329700      -2.04968800
H        3.07746400      -3.96856900      -3.06260200
H        2.99211700      -2.21765600      -2.76289300
