75
Properties=species:S:1:pos:R:3 pbc="F F F"
Si       0.63902000       1.55252100       0.80593600
O        1.79176100       1.45939700      -0.35749200
C        3.21927500       1.43059800      -0.38187600
C        3.70693400       0.07205100      -0.85209200
H        3.62087000       1.63838600       0.61416000
C        2.88937600      -0.80014000      -1.58098500
C        5.03454700      -0.29288500      -0.58975100
C        3.39290400      -2.02272200      -2.03669000
H        1.86092500      -0.52248300      -1.78893200
C        5.54206100      -1.50707100      -1.05598900
H        5.67022700       0.37457200      -0.01216800
C        4.72040800      -2.37754900      -1.78108900
H        2.74575600      -2.69695300      -2.59189100
H        6.57205000      -1.77981600      -0.84259800
H        5.11110100      -3.32726500      -2.13642200
C        3.69563100       2.54333700      -1.35002100
C        3.31664700       3.87929300      -0.89645600
H        4.78608200       2.46858200      -1.44025400
H        3.27061300       2.34128800      -2.34169000
C        2.98192600       4.96845200      -0.49096900
H        2.69108800       5.93211500      -0.13397700
Cl       1.94012800       1.97011800       2.55732800
Cl      -0.58685500       3.22510600       1.24265600
O       -0.47214500       1.08785700      -0.69663000
O        0.06703200       0.09027000       1.64176500
C       -2.14260900      -0.27407100       0.12790600
C       -1.09881400      -1.31932800       0.20121500
C        1.04570900      -1.98768700       1.11695100
C       -2.69677700       1.84963200      -0.88397600
C       -4.01559300       1.64523800      -0.54395800
C       -3.47842500      -0.49133100       0.52418200
C       -4.44349400       0.51935000       0.19234600
C       -1.20731200      -2.52386900      -0.53130300
C       -0.14598400      -3.48382000      -0.40144200
C        0.94403400      -3.17961400       0.43750300
C       -3.88785800      -1.64775900       1.24228900
C       -5.79395600       0.33643700       0.58347700
C       -2.29177100      -2.79907400      -1.41089400
C       -0.21630000      -4.69875200      -1.12861300
H        1.74561600      -3.89988600       0.54377700
C        2.17092500      -1.62646000       2.05231900
N       -1.78728300       0.89062100      -0.46083800
N        0.00181300      -1.09053300       0.94739100
C       -2.19615200       2.95884600      -1.77718200
H       -4.74737900       2.38170100      -0.85386700
C       -6.16518900      -0.79572200       1.27729800
C       -5.20681200      -1.78875700       1.61082800
H       -3.15797800      -2.40309300       1.51047700
H       -6.52196300       1.10081300       0.32909800
H       -7.19964800      -0.93175600       1.57819700
H       -5.51828500      -2.66588300       2.16951500
C       -1.28708600      -4.94525900      -1.96007800
C       -2.32404500      -3.98674500      -2.10560800
H       -3.08461200      -2.07293100      -1.54029500
H        0.58729400      -5.42073800      -1.02086900
H       -1.33804900      -5.87523000      -2.51826800
H       -3.15032000      -4.19098300      -2.77928300
H       -1.20880400       3.25515600      -1.42270800
C       -2.03452900       2.40159000      -3.21157200
C       -3.10936200       4.19107700      -1.75908700
H       -1.62158600       3.18665300      -3.85419200
H       -1.35382900       1.54455900      -3.22820900
H       -3.00681800       2.09495500      -3.61462200
H       -2.64478700       4.97934900      -2.35957500
H       -4.09021200       3.97247000      -2.19701300
H       -3.25248000       4.56594100      -0.73996700
C        3.42283500      -2.47988700       1.81708600
H        2.43170500      -0.58188400       1.86675100
C        1.69850600      -1.74229600       3.52072200
H        3.74093000      -2.44667500       0.77222000
H        4.23094400      -2.08433700       2.43971400
H        3.25321100      -3.52273300       2.11039200
H        1.43887700      -2.78268700       3.74874300
H        2.51874600      -1.43498500       4.17765200
H        0.83599800      -1.10177000       3.71928900
