81
Properties=species:S:1:pos:R:3 pbc="F F F"
Si       0.48187400       1.54901600       1.25937600
O        1.65202800       2.19039400       0.28577600
C        1.81565000       2.26951600      -1.15908300
C        2.38473200       0.97721600      -1.70486300
H        0.85029800       2.46779300      -1.62807400
C        3.66679200       0.54477900      -1.33997300
C        1.63058900       0.19223800      -2.58631000
C        4.17928000      -0.65366400      -1.84018700
H        4.25898300       1.13829900      -0.65046400
C        2.14103400      -1.00579500      -3.09163300
H        0.63643100       0.51805900      -2.87362600
C        3.41705600      -1.43326900      -2.71601800
H        5.17235800      -0.98110700      -1.54414500
H        1.53981700      -1.60697700      -3.76801700
H        3.81456300      -2.36865400      -3.10066900
C        2.73950300       3.47674600      -1.42768600
C        2.13406900       4.74448800      -1.02515000
H        2.96330900       3.49263000      -2.50193400
H        3.68868500       3.32491900      -0.89992300
C        1.60114300       5.77702200      -0.68991100
H        1.13832500       6.69156700      -0.38975800
Cl       1.64862100       2.07433900       3.06003900
Cl      -1.26710100       2.43093200       2.10850400
O       -0.47515300       1.10567000      -0.32738800
O        0.52026400      -0.15677900       1.77916000
C       -1.69628500      -0.72467500       0.26705200
C       -0.43125100      -1.48455800       0.12471900
C        1.75741600      -2.03720200       1.02226700
C       -2.84394500       1.26096900      -0.51440500
C       -4.02760600       0.68746900      -0.09668600
C       -2.89191900      -1.33092500       0.69269500
C       -4.09560500      -0.56243100       0.55818300
C       -0.34689900      -2.49573900      -0.85595800
C        0.84364800      -3.28815200      -0.88516700
C        1.83020000      -3.05017200       0.08992500
C       -2.93960600      -2.63318200       1.25926300
C       -5.31757100      -1.11562000       1.01479500
C       -1.36251200      -2.72148000      -1.82708100
C        0.98482900      -4.29850500      -1.86804300
H        2.69131400      -3.70285300       0.10317300
C        2.80746700      -1.85018100       2.12653700
N       -1.69476700       0.54370600      -0.18907000
N        0.62202700      -1.22483300       0.92982900
C       -2.76510300       2.47792400      -1.44871100
H       -4.95403200       1.21023200      -0.29244500
C       -5.33721700      -2.37645400       1.57422200
C       -4.14441200      -3.13729500       1.69548200
H       -2.02830900      -3.21202400       1.36143500
H       -6.22969100      -0.53558900       0.91172200
H       -6.27426800      -2.79794100       1.92546700
H       -4.18467800      -4.12598800       2.14189600
C       -1.18775500      -3.70117500      -2.77816500
C       -0.01348700      -4.49877100      -2.79655900
H        1.88960200      -4.89839300      -1.87946500
H       -2.25860200      -2.11265100      -1.83445500
H       -1.95560000      -3.86326100      -3.52816100
H        0.09675400      -5.26762700      -3.55529500
C       -2.11399800       1.99943100      -2.77272800
C       -4.18970100       2.97116500      -1.77931200
C       -1.98349200       3.69027100      -0.89659200
C        3.68063600      -0.60661400       1.85212700
C        2.14302200      -1.77706100       3.52680400
C        3.75962800      -3.06905600       2.15083900
H       -2.14150000       2.82757300      -3.48876900
H       -1.07352800       1.71034800      -2.62076500
H       -2.66481000       1.15221900      -3.19689500
H       -2.01878100       4.47707100      -1.65821400
H       -2.44684200       4.06950600       0.01764500
H       -0.93918600       3.46184700      -0.69224200
H       -4.10023200       3.80550200      -2.48107100
H       -4.79358500       2.18956000      -2.25316700
H       -4.70690500       3.33197900      -0.88358500
H        3.09575500       0.30243500       1.73544100
H        4.35841100      -0.46981500       2.70214300
H        4.27566100      -0.76373200       0.94918000
H        1.59661000      -0.84871400       3.68280900
H        1.46847100      -2.62807000       3.67780100
H        2.93991800      -1.83581900       4.27573000
H        4.34653800      -3.14893800       1.22957700
H        4.46075600      -2.92258200       2.97767800
H        3.21799600      -4.00656700       2.31913300
