81
Properties=species:S:1:pos:R:3 pbc="F F F"
Si      -0.98837800      -0.63873500       0.01209300
O       -2.36828900      -1.54120800      -0.07386400
C       -3.65604900      -1.32415900      -0.68780000
C       -4.42720700      -0.25264700       0.05168400
H       -3.52789700      -1.03396500      -1.73368300
C       -4.43634500      -0.21720800       1.45299100
C       -5.15928500       0.69983900      -0.66506500
C       -5.16762700       0.76340400       2.12671000
H       -3.85813600      -0.94883400       2.01013100
C       -5.89614300       1.67833900       0.00794000
H       -5.13845400       0.68177700      -1.75213000
C       -5.90092800       1.71221200       1.40575700
H       -5.16361000       0.78892300       3.21336000
H       -6.45445300       2.41973300      -0.55768900
H       -6.46628100       2.47787500       1.93057600
C       -4.39824500      -2.68055000      -0.63232800
C       -3.75420900      -3.71703600      -1.43645000
H       -5.42161500      -2.51226500      -0.99072700
H       -4.46860700      -2.99549100       0.41641300
C       -3.20734600      -4.55344900      -2.11782100
H       -2.72439200      -5.29801600      -2.71163600
Cl      -1.45104800       0.57364800      -1.81945600
Cl      -0.59802200      -1.61225500       1.99207400
O       -0.28703700       0.78421900       0.87176400
O        0.42259700      -1.26795900      -0.85778400
C        1.64637900       1.10486900      -0.33375200
C        2.14394300      -0.18285600       0.23365400
C        2.11361900      -2.61487900       0.12329700
C        0.08125200       2.94656600      -0.05499100
C        0.84835100       3.67484400      -0.94214500
C        2.43010000       1.83075900      -1.24864200
C        1.98411100       3.15062200      -1.59379200
C        3.24534300      -0.18035400       1.11128300
C        3.76276900      -1.45380700       1.52364800
C        3.19779800      -2.62428500       0.97696900
C        3.61002300       1.30476600      -1.84489800
C        2.72875900       3.90548800      -2.53426700
C        3.83007100       1.01498700       1.61597100
C        4.85144000      -1.49581600       2.43030800
H        3.64141900      -3.57423900       1.24106600
C        1.58087100      -3.86358900      -0.59353000
N        0.49351000       1.63454900       0.13597400
N        1.58839900      -1.35651300      -0.14518600
C       -1.06288700       3.54134100       0.77789700
H        0.57214500       4.69962700      -1.14923200
C        3.86438300       3.37023000      -3.10381600
C        4.30452900       2.06485000      -2.75793800
H        3.94603600       0.30447400      -1.59602900
H        2.39023300       4.90452200      -2.79174200
H        4.43225800       3.94894200      -3.82602200
H        5.19735300       1.66121700      -3.22502800
C        4.88194400       0.93549100       2.49961500
C        5.39703500      -0.32339400       2.90763100
H        5.24319300      -2.46082500       2.73676600
H        3.43798600       1.98048100       1.31809800
H        5.32156400       1.84595400       2.89462700
H        6.22951000      -0.35740700       3.60393600
C       -0.70467900       3.40326500       2.28174700
C       -1.19382700       5.04894600       0.46997900
C       -2.44020100       2.90146800       0.49537500
C        0.11943300      -4.21438200      -0.22928400
C        1.71691200      -3.65775700      -2.12565600
C        2.44667200      -5.08461300      -0.21297100
H       -1.48003000       3.91532900       2.86182300
H       -0.66697800       2.36054800       2.60140500
H        0.25840300       3.88163700       2.49430300
H       -3.18561200       3.44933300       1.08082200
H       -2.69900800       2.98341300      -0.56284400
H       -2.49169000       1.85416200       0.78693100
H       -1.98351000       5.45263000       1.11016900
H       -0.26736600       5.59243000       0.68555400
H       -1.47896700       5.22307500      -0.57351300
H       -0.59922100      -3.47658700      -0.58004000
H       -0.11783000      -5.16906400      -0.71155800
H        0.00621400      -4.33146500       0.85190400
H        1.07820900      -2.85191900      -2.49114200
H        2.75787300      -3.44626400      -2.39630100
H        1.41455600      -4.58858800      -2.61760500
H        2.36831400      -5.31746400       0.85470400
H        2.07353200      -5.94461900      -0.77626500
H        3.50025900      -4.93616700      -0.47351600
