61
Properties=species:S:1:pos:R:3 pbc="F F F"
Si      -1.22910100      -0.17575600       0.82256200
O       -1.98042800       0.73332800      -0.32431000
C       -3.33715300       1.21710200      -0.37457100
C       -4.32156900       0.07609300      -0.51616000
H       -3.55420000       1.78572800       0.53457000
C       -4.03848700      -1.01046400      -1.35485000
C       -5.54087900       0.11747600       0.16894100
C       -4.96370300      -2.04611600      -1.50054000
H       -3.08528300      -1.05248700      -1.87388700
C       -6.47140100      -0.91475700       0.01822700
H       -5.75503500       0.95417100       0.82994800
C       -6.18374200      -1.99931200      -0.81672300
H       -4.73172000      -2.89073600      -2.14446700
H       -7.41326500      -0.87758400       0.55930300
H       -6.90282800      -2.80663500      -0.92840100
C       -3.41750100       2.16399900      -1.59561300
C       -2.53400400       3.32347300      -1.48733500
H       -4.45955200       2.49429100      -1.69016500
H       -3.17739400       1.58491500      -2.49645600
C       -1.79622800       4.27525900      -1.37340600
H       -1.15108700       5.12036700      -1.27521500
Cl      -1.47669300      -2.23574700       1.22341900
Cl      -2.39389500       0.41208500       2.59074300
O       -0.11021900      -0.62141200      -0.73205300
O        0.23809100       0.48107500       1.59492300
C        2.06462000      -0.80728900       0.04306200
C        2.05158700       0.66871100       0.13225100
C        0.96325000       2.63995100       1.01612700
C        0.95744800      -2.70541900      -0.94295100
C        2.05390900      -3.49693700      -0.65579700
C        3.18188700      -1.59738500       0.40117000
C        3.16523400      -2.99149400       0.04819600
C        2.97627900       1.46782600      -0.58705300
C        2.88980500       2.89871400      -0.44883500
C        1.87616200       3.44381900       0.36100500
C        4.29664500      -1.06676900       1.10047900
C        4.27312900      -3.80584100       0.39345600
C        3.95396800       0.91702500      -1.45856300
C        3.80936000       3.72353000      -1.14369800
H        1.78675200       4.51754700       0.47829800
C       -0.07517700       3.14429600       1.82480700
N        0.97557600      -1.37515700      -0.51873000
N        1.09309400       1.25894600       0.87064600
C       -0.15966700      -3.15706900      -1.68215000
H        2.03832500      -4.53054800      -0.98224500
C        5.34513300      -3.26190700       1.06950100
C        5.35296400      -1.88947200       1.42807100
H        4.30596800      -0.02157700       1.38680400
H        4.25804400      -4.85655800       0.12100200
H        6.19096700      -3.88777200       1.33695600
H        6.19954600      -1.48390700       1.97309100
C        4.82755000       1.74927200      -2.12401700
C        4.76509400       3.15638100      -1.95913200
H        3.73880200       4.80031300      -1.02680400
H        4.00963800      -0.15355000      -1.60752200
H        5.56988000       1.32113600      -2.79009200
H        5.46857900       3.78877800      -2.49180700
C       -1.07073400      -3.58515000      -2.35309500
H       -1.88995000      -3.95776300      -2.92984000
C       -0.95358300       3.62704400       2.50102600
H       -1.74019500       4.03670300       3.09745100
