61
Properties=species:S:1:pos:R:3 pbc="F F F"
Si      -1.19692000      -1.74705200       0.12398000
O       -2.26494700      -0.50777100       0.30119300
C       -3.26098600       0.09169100      -0.56341800
C       -2.67733600       1.38641200      -1.10194100
H       -3.46357100      -0.58221500      -1.39992700
C       -3.00997400       2.64909900      -0.59416400
C       -1.72146600       1.29794300      -2.12550100
C       -2.40008200       3.80015400      -1.10145200
H       -3.74570500       2.74643500       0.19763200
C       -1.10040600       2.44445700      -2.62341300
H       -1.46493700       0.32233600      -2.53045400
C       -1.44079100       3.70099900      -2.11163600
H       -2.66871600       4.77316200      -0.69880200
H       -0.35895300       2.35970900      -3.41315300
H       -0.95933400       4.59533600      -2.49614800
C       -4.55030100       0.25942300       0.25997300
C       -5.11806500      -1.02115200       0.67465500
H       -5.27562500       0.81073500      -0.35170800
H       -4.33636800       0.86891700       1.14607700
C       -5.57313500      -2.08963700       1.01120400
H       -5.97419200      -3.03444800       1.30635000
Cl      -1.12298900      -3.42944500       1.38725800
Cl      -2.18059700      -2.79882500      -1.53785000
O        0.16042200      -1.42206500      -1.00131800
O       -0.14922700      -0.91911900       1.51553700
C        1.99650100      -0.40704300       0.04277700
C        1.10550900       0.70380100       0.43777000
C       -0.67856200       1.34348700       1.92255000
C        2.20436600      -2.55678400      -1.04444100
C        3.55947800      -2.56950900      -0.77637300
C        3.37337200      -0.41778600       0.38385400
C        4.17812500      -1.52480300      -0.06370100
C        1.32535300       2.04840000       0.05955300
C        0.52870400       3.06434400       0.69048600
C       -0.44461500       2.67453600       1.62981300
C        3.97584200       0.59923500       1.17179600
C        5.56148100      -1.55055100       0.24408500
C        2.28467100       2.41998000      -0.91753800
C        0.74851700       4.42337700       0.35526200
H       -1.04709100       3.42160200       2.13289000
C       -1.64838500       0.91252100       2.85494000
N        1.46581900      -1.45216200      -0.62033900
N        0.10006400       0.38610400       1.27933800
C        1.53325200      -3.59210700      -1.72854200
H        4.13932900      -3.41923400      -1.11768200
C        6.12189200      -0.53332300       0.98692200
C        5.32166400       0.53690100       1.46128300
H        3.37862700       1.41803100       1.55260800
H        6.16106900      -2.38559600      -0.10448600
H        7.18072200      -0.55557900       1.22551200
H        5.77416200       1.31533800       2.06737100
C        2.46322500       3.75086400      -1.22771700
C        1.70392100       4.75803300      -0.57977000
H        0.14571400       5.18587800       0.83772700
H        2.86681800       1.65705300      -1.42120600
H        3.19231800       4.03228800      -1.98106100
H        1.86764900       5.79957700      -0.83850300
C        0.99711700      -4.50705300      -2.31009900
H        0.50874500      -5.31016300      -2.81935000
C       -2.47821000       0.61163700       3.68188100
H       -3.21803000       0.32892600       4.39978800
