59
Properties=species:S:1:pos:R:3 pbc="F F F"
Si      -1.27167100       0.83967600      -1.21047000
O       -2.81304800       1.14779700      -0.82929600
C       -3.82337800       0.15089100      -0.44426700
C       -3.48316000      -0.48434200       0.88271700
H       -3.85552600      -0.61120600      -1.22870300
C       -3.23781800       0.30980000       2.01252300
C       -3.44110000      -1.87901600       0.99623400
C       -2.96030800      -0.28788700       3.24212900
H       -3.25310300       1.39219000       1.92410000
C       -3.17087900      -2.47787300       2.22987800
H       -3.62131500      -2.49356200       0.11748000
C       -2.93297300      -1.68293100       3.35403200
H       -2.77082900       0.33253700       4.11400500
H       -3.13826500      -3.56069800       2.30969900
H       -2.72122900      -2.14709800       4.31348200
C       -5.17092600       0.89654100      -0.39678200
C       -5.57502400       1.44615400      -1.68895900
H       -5.09980000       1.69318600       0.35431200
H       -5.92400800       0.18279100      -0.04001200
C       -5.89664300       1.88886000      -2.76720700
H       -6.18614100       2.28647600      -3.71544100
Cl      -0.45617600       2.38802900      -2.26159200
Cl      -1.04307100      -0.95608900      -2.17809000
O       -0.41354800       0.71905000       0.29307100
O        2.70689300      -0.07320300      -2.12075300
C        1.93236000       0.58312600       0.34211700
C        1.80713600      -0.81208200      -0.13206300
C        2.22987300      -2.33780500      -1.91443400
C        0.78878200       2.59526100       1.03271900
C        1.97925300       3.20747400       1.34606500
C        3.17664100       1.17501500       0.67840800
C        3.20333200       2.52423000       1.17587700
C        1.28818700      -1.85423100       0.67790900
C        1.22748700      -3.17947100       0.13067100
C        1.71658800      -3.38024700      -1.17747100
N        0.80765800       1.30163500       0.51398400
N        2.26844700      -1.02547000      -1.39612700
C        2.72722700      -2.49747900      -3.23860600
C       -0.47910800       3.21063900       1.22443100
N        3.12149300      -2.68981500      -4.31444300
N       -1.49756000       3.73928200       1.40265000
H        1.69316300      -4.36850700      -1.62461400
H        1.95897900       4.21822700       1.73813100
C        4.44166300       3.12052300       1.50599400
H        4.45507200       4.13856200       1.88139100
C        4.38961800       0.45750600       0.54592300
H        4.37703600      -0.56418300       0.18569900
C        0.83366600      -1.63791600       2.00117000
C        0.69745500      -4.23793600       0.90837500
C        0.24875800      -3.99528700       2.19039400
H       -0.16115200      -4.80375200       2.78733700
C        0.32419400      -2.69127900       2.73487700
H       -0.02804800      -2.51322800       3.74530300
C        5.61135700       2.40133100       1.35183300
H        6.56360300       2.85785600       1.60315100
C        5.58289100       1.06796400       0.87542400
H        6.51277800       0.51856600       0.76908700
H        0.88028800      -0.64816400       2.44236000
H        0.65554900      -5.23421800       0.47832300
