59
Properties=species:S:1:pos:R:3 pbc="F F F"
Si      -1.09851400      -0.56670700      -0.94699200
O       -2.57254400      -0.79585000      -0.33589900
C       -3.87979100      -0.33015000      -0.80617800
C       -4.68042500       0.16796500       0.37111100
H       -3.73134200       0.48027100      -1.52568900
C       -4.79460600      -0.60049200       1.53821800
C       -5.36543600       1.38397600       0.27440700
C       -5.58212300      -0.15057300       2.59948700
H       -4.25785100      -1.54173600       1.61745400
C       -6.16215800       1.83036500       1.33286400
H       -5.26743700       1.98396700      -0.62634600
C       -6.27029000       1.06450000       2.49724800
H       -5.66253300      -0.74744700       3.50412900
H       -6.68986200       2.77673600       1.25038000
H       -6.88517100       1.41267100       3.32299700
C       -4.57915700      -1.51625600      -1.50628200
C       -3.83016500      -2.01023000      -2.65842700
H       -5.57581000      -1.17600000      -1.81406300
H       -4.72181400      -2.31723800      -0.77020200
C       -3.16203100      -2.38846000      -3.59264500
H       -2.58205200      -2.72913700      -4.42241700
Cl      -0.96236800       0.50823700      -2.68422000
Cl      -0.11005700      -2.35500900      -1.07729100
O       -0.31407100       0.36084100       0.30121600
O        3.05580500      -0.54731900      -1.72299900
C        1.94725000       0.98957300       0.14447100
C        2.31327400      -0.41000700       0.45392000
C        3.36303400      -2.39498000      -0.34889300
C        0.18481800       2.60952900      -0.16277000
C        1.09770400       3.62135800      -0.34250000
C        2.91649900       2.01678400      -0.00029100
C        2.48289300       3.36088200      -0.27155600
C        2.11390100      -0.99626300       1.72951600
C        2.54973200      -2.34706300       1.93776600
C        3.17900900      -3.01490000       0.86548400
N        0.64299000       1.31018400       0.05115000
N        2.91429000      -1.07529600      -0.57163400
C        3.98183100      -3.03531200      -1.45960900
C       -1.21935700       2.83433700      -0.17126200
N        4.49698600      -3.60782100      -2.32944900
N       -2.35465600       3.07846800      -0.18741000
H        3.52659300      -4.03562500       0.98658400
H        0.73191900       4.62555800      -0.52176800
C        3.44280300       4.38697800      -0.42815100
H        3.10701300       5.39882500      -0.63262400
C        4.30022400       1.74622600       0.12911700
H        4.63843100       0.74055100       0.34834700
C        1.50756100      -0.29841300       2.80195200
C        2.34896500      -2.96458000       3.19637600
C        1.74115600      -2.26589100       4.22006600
H        1.58432800      -2.73764800       5.18493000
C        1.32488200      -0.92791900       4.01849400
H        0.85543300      -0.38564000       4.83369400
C        4.78694400       4.09018500      -0.31091600
H        5.52673700       4.87543200      -0.43069400
C        5.21318800       2.76968700      -0.02679600
H        6.27361400       2.56003400       0.07006300
H        1.18663000       0.72889700       2.67009900
H        2.68200900      -3.98869400       3.33622400
