59
Properties=species:S:1:pos:R:3 pbc="F F F"
Si      -0.27347600      -2.22913200       0.73516800
O       -1.75533500      -1.78028600       0.27280100
C       -2.28456200      -1.41649000      -1.04983800
C       -2.97625800      -0.08096900      -0.92362400
H       -1.45101400      -1.33964000      -1.75355400
C       -3.99923300       0.10601800       0.01761300
C       -2.60647800       0.97773900      -1.76083500
C       -4.63985500       1.34174700       0.12151300
H       -4.28153000      -0.70869200       0.67850200
C       -3.25528200       2.21198800      -1.66346900
H       -1.80304000       0.83672600      -2.47622600
C       -4.27085100       2.39605500      -0.72194500
H       -5.42653800       1.48189900       0.85778700
H       -2.95800900       3.03005600      -2.31329400
H       -4.76980200       3.35773600      -0.64005900
C       -3.24399100      -2.53639600      -1.49630600
C       -2.58445000      -3.83574900      -1.59507600
H       -3.66195300      -2.24301400      -2.46762400
H       -4.07861700      -2.58784500      -0.78633300
C       -2.00338900      -4.89461100      -1.64796300
H       -1.49806800      -5.83400400      -1.70372100
Cl      -0.29337200      -3.67514000       2.17128000
Cl       1.00060800      -2.73122000      -0.78619000
O        0.65923600       0.46435400      -2.11563800
O        0.40932600      -0.86386600       1.58094700
C        1.83668800       0.68125600      -0.15016300
C        0.57768100       1.18471900       0.44411700
C       -1.23242100       0.78860600       1.98675100
C        2.93098900      -0.02771400      -2.14607200
C        4.12456300      -0.16161000      -1.47513800
C        3.04311800       0.57525900       0.58638800
C        4.22365200       0.12904600      -0.09753700
C        0.09016400       2.49369300       0.20377600
C       -1.10404400       2.93212600       0.87268500
C       -1.74062600       2.04720200       1.76679900
N        1.76241000       0.39138400      -1.47623700
N       -0.09272100       0.38669000       1.29569200
C       -1.82223700      -0.12227900       2.90457800
C        2.78205800      -0.31890400      -3.53164100
N       -2.33939300      -0.82667700       3.66913600
N        2.71824700      -0.56927000      -4.66434900
H       -2.63382600       2.34783600       2.30073800
H        4.99563300      -0.49879200      -2.02664600
C        5.44290900       0.00497600       0.61201200
H        6.32684600      -0.33430400       0.08006100
C        3.12874100       0.90053700       1.96253700
H        2.25447200       1.25590600       2.49758200
C        0.76294100       3.38125600      -0.67157700
C       -1.59412700       4.23776900       0.64273200
C       -0.92268000       5.07880100      -0.22152700
H       -1.29766700       6.08134300      -0.40161900
C        0.25606200       4.64768700      -0.87914400
H        0.76939700       5.32568900      -1.55348500
C        5.49507000       0.31707200       1.95566300
H        6.42820200       0.22227600       2.50193200
C        4.33328400       0.76866700       2.62693500
H        4.38922100       1.01817400       3.68219100
H        1.66975200       3.06496600      -1.17323100
H       -2.49804600       4.55815400       1.15008000
