59
Properties=species:S:1:pos:R:3 pbc="F F F"
Si       1.09188900      -0.99082900       1.06323800
O        1.53454500       0.38879000       0.34550300
C        2.85046700       0.87072200      -0.12115900
C        3.63185000      -0.22956700      -0.79889900
H        2.58308500       1.62935700      -0.85985100
C        4.45286800      -1.11297200      -0.08250000
C        3.48565800      -0.39947300      -2.18289500
C        5.10994400      -2.15461100      -0.74166900
H        4.58627100      -0.99878000       0.98834200
C        4.14377400      -1.43876700      -2.84236600
H        2.85382700       0.28501000      -2.74218100
C        4.95571300      -2.32050700      -2.12137600
H        5.74413300      -2.83281000      -0.17759300
H        4.02398300      -1.55910500      -3.91551000
H        5.46899000      -3.13045100      -2.63254900
C        3.58508200       1.55557400       1.04608300
C        2.82926800       2.66186100       1.62843100
H        4.54416800       1.91834600       0.65508400
H        3.81462900       0.82003000       1.82472200
C        2.19280900       3.57039600       2.10891400
H        1.63109700       4.37305700       2.53275400
Cl       1.00470000      -2.63647800      -0.15317500
Cl       2.09568000      -1.39324100       2.80278400
O       -0.51994900      -0.67105600       1.61429300
O       -0.64150400      -0.05932300      -2.25554300
C       -2.12197500      -0.30614800      -0.06895000
C       -1.44452800       0.97681700      -0.36425700
C       -0.10442400       2.17862800      -1.92298500
C       -2.19565800      -2.28803400       1.30732200
C       -3.33114900      -2.72978100       0.66987000
C       -3.30451200      -0.71904300      -0.73286900
C       -3.91522000      -1.96940500      -0.36687900
C       -1.54688300       2.11426200       0.47297700
C       -0.89006700       3.32309200       0.06722900
C       -0.17124000       3.31232700      -1.14606100
N       -1.61616000      -1.08873800       0.90062700
N       -0.74683300       0.98487100      -1.53107200
C        0.62180000       2.11955400      -3.14515300
C       -1.57731800      -2.99569000       2.37498600
N        1.24087500       2.12293100      -4.12852400
N       -1.10692800      -3.60621200       3.24350100
H        0.34531600       4.20434700      -1.48371700
H       -3.77493300      -3.66710100       0.98539300
C       -5.08654400      -2.39417500      -1.03415500
H       -5.54056000      -3.33956700      -0.75476700
C       -3.89768400       0.07794800      -1.74158300
H       -3.45209700       1.02765400      -2.01389800
C       -2.27875400       2.10381200       1.68532400
C       -0.98084600       4.47882900       0.87970500
C       -1.69599500       4.43986200       2.05949700
H       -1.76566800       5.32422000       2.68501500
C       -2.34430800       3.24639800       2.45950400
H       -2.90497000       3.22856400       3.38927800
C       -5.63562200      -1.60234300      -2.02458200
H       -6.53412700      -1.92696700      -2.53984900
C       -5.04251900      -0.36439100      -2.37343500
H       -5.49539300       0.24464600      -3.14915400
H       -2.78661000       1.20143400       2.00778800
H       -0.47936300       5.38663300       0.55787700
