59
Properties=species:S:1:pos:R:3 pbc="F F F"
Si      -1.27169000      -0.29041200       0.84192800
O       -1.95482600       0.67477800      -0.29390000
C       -3.30199800       1.20643600      -0.34466200
C       -4.32043200       0.10291300      -0.52310000
H       -3.50396500       1.75639500       0.57896000
C       -4.08073000      -0.95357200      -1.41226000
C       -5.52829700       0.15078500       0.18189100
C       -5.03814900      -1.95478000      -1.58789500
H       -3.13816100      -1.00044400      -1.95015500
C       -6.49088100      -0.84625000       0.00063300
H       -5.70821400       0.96423200       0.88085000
C       -6.24645400      -1.90150300      -0.88410900
H       -4.84016600      -2.77667100      -2.27086300
H       -7.42392600      -0.80485300       0.55637200
H       -6.99059700      -2.68194100      -1.01977800
C       -3.33267000       2.18618300      -1.53940300
C       -2.42323400       3.32058600      -1.38804200
H       -4.36338600       2.54840800      -1.64090900
H       -3.09485100       1.62492500      -2.45192500
C       -1.67622000       4.26147700      -1.24722000
H       -1.03236400       5.10505100      -1.12927200
Cl      -1.47035400      -2.36922600       1.09037200
Cl      -2.43227900       0.19474600       2.60000300
O       -0.07352600      -0.69437100      -0.77732100
O        0.20759400       0.36623400       1.60460600
C        2.09691500      -0.78842600       0.02232400
C        2.00520200       0.68262300       0.14191300
C        0.82529100       2.56362200       1.06113700
C        1.09009800      -2.71843600      -0.96838000
C        2.20635400      -3.47673000      -0.69149200
C        3.24809500      -1.53402300       0.37776900
C        3.29657100      -2.92568300       0.01519000
C        2.88126500       1.55148300      -0.56164000
C        2.71063600       2.97309600      -0.40290700
C        1.67104500       3.44337800       0.42466800
N        1.03645900      -1.38995000      -0.55559300
N        1.01834600       1.19844400       0.89431100
C       -0.22714800       3.00739500       1.90891500
C       -0.01359300      -3.21486700      -1.72079700
N       -1.04840500       3.45855900       2.59372800
N       -0.85751400      -3.66954500      -2.37560600
H        1.51645900       4.50688800       0.56630900
H        2.22939400      -4.50903100      -1.02205800
C        4.43589100      -3.69372600       0.35520000
H        4.46745700      -4.74183400       0.07492900
C        4.33392200      -0.96084000       1.08412100
H        4.29849400       0.08120700       1.37993500
C        3.88856300       1.07295600      -1.43771300
C        3.57002400       3.86278300      -1.08830000
C        4.55638600       3.36496900      -1.91578700
H        5.21573300       4.04638700      -2.44397100
C        4.70729100       1.96837900      -2.09503300
H        5.47457700       1.59527000      -2.76571000
C        5.48201800      -3.10706400       1.03870800
H        6.35441300      -3.69616700       1.30332900
C        5.42622100      -1.74020400       1.40721200
H        6.25246500      -1.30083700       1.95703200
H        4.01361800       0.01001200      -1.59835400
H        3.43341100       4.93149800      -0.95866900
