77
Properties=species:S:1:pos:R:3 pbc="F F F"
Si       0.12834800       1.26385900       0.96299900
O        1.00276800       1.67662600      -0.36549000
C        2.21595100       2.39617500      -0.60118900
C        3.23128600       1.48764200      -1.26462100
H        2.62548900       2.77392500       0.33945800
C        2.83577100       0.43515200      -2.09966800
C        4.59588300       1.73216300      -1.07017500
C        3.79411000      -0.37048300      -2.72050600
H        1.77874800       0.23719200      -2.24681800
C        5.55579500       0.93306100      -1.69588200
H        4.90617200       2.53994800      -0.41143400
C        5.15674800      -0.12443300      -2.52067000
H        3.47600700      -1.19371700      -3.35503700
H        6.61209600       1.12532900      -1.52814000
H        5.90175000      -0.75451700      -2.99906000
C        1.88045200       3.59756700      -1.52230300
C        0.91641500       4.51485200      -0.91978300
H        2.81789300       4.12121800      -1.74745600
H        1.48917300       3.20486000      -2.46981600
C        0.10304000       5.23932000      -0.39422500
H       -0.61766800       5.87849500       0.06660800
Cl       1.55641000       1.88585200       2.51825400
Cl      -1.47905000       2.26468400       1.90699400
O       -1.06995300       0.68054600      -0.44855700
O        0.19328900      -0.42242600       1.54952400
C       -1.90253200      -1.37156500       0.15512900
C       -0.53394100      -1.86118100      -0.12654100
C        1.79999600      -1.81809000       0.51814800
C       -3.41337700       0.48614600      -0.14973300
C       -4.45484000      -0.32678200       0.25634000
C       -2.93868400      -2.21462400       0.60228400
C       -4.26277000      -1.65968100       0.67102100
C       -0.27032700      -2.77394200      -1.17131000
C        1.09317000      -3.18195100      -1.38044100
C        2.08305100      -2.70348700      -0.50102500
C       -2.71896900      -3.56407800       0.99062900
C       -5.33110600      -2.48028900       1.11507700
C       -1.28584600      -3.25792700      -2.04202700
C        1.39559200      -4.06717600      -2.44576300
H        3.10621300      -3.04715300      -0.59960600
C        2.81994200      -1.36993600       1.47966400
N       -2.13826900      -0.07135500      -0.12735200
N        0.48368400      -1.38790000       0.62230600
C       -3.62654500       1.86552600      -0.62335400
H       -5.45729600       0.08547300       0.23156400
C       -5.09090100      -3.78673600       1.48342600
C       -3.77920900      -4.32806100       1.42504600
H       -1.71806900      -3.98022500       0.95742600
H       -6.33147800      -2.06085300       1.16093200
H       -5.90979200      -4.41169300       1.82671100
H       -3.61140500      -5.35584800       1.73156800
C       -4.55055000       2.67528900       0.06047900
C       -2.98922100       2.36658100      -1.77205600
C       -4.18277900       4.46151100      -1.52908900
C       -3.27157400       3.65621800      -2.22014200
C       -4.82244400       3.96671900      -0.38789800
H       -5.03033000       2.30115400       0.95994500
H       -5.52588100       4.58858200       0.15834400
H       -4.39095700       5.46980800      -1.87624800
H       -2.77518200       4.03363400      -3.10953100
H       -2.28018100       1.75071000      -2.31174300
C        2.59928700      -1.44315300       2.86579700
C        4.07005600      -0.95897000       0.99174600
C        4.86458100      -0.68515600       3.26061400
C        5.08391900      -0.60798600       1.88227900
C        3.62331200      -1.10993300       3.74863900
H        1.63599200      -1.76402200       3.24652400
H        3.45064200      -1.17431700       4.81905800
H        5.65589100      -0.41342400       3.95390400
H        6.04097600      -0.26892600       1.49663000
H        4.23508000      -0.88837700      -0.07747000
C       -0.95433600      -4.11306900      -3.06865900
C        0.39001100      -4.52219200      -3.27120800
H        2.42594700      -4.37386800      -2.59641300
H       -2.31347600      -2.94484800      -1.90294600
H       -1.72955300      -4.47552600      -3.73637400
H        0.62394200      -5.19758100      -4.08857300
