77
Properties=species:S:1:pos:R:3 pbc="F F F"
Si      -0.82523900      -0.59142200      -1.10177700
O       -1.55564500      -1.44456100       0.10059000
C       -2.29987600      -1.04330100       1.26235100
C       -3.75419000      -0.77190300       0.92497900
H       -1.86228600      -0.14168400       1.70077100
C       -4.35445700      -1.25563000      -0.24270900
C       -4.52180000      -0.03425400       1.83643400
C       -5.70509000      -0.99497500      -0.49777900
H       -3.76559900      -1.82561400      -0.95414900
C       -5.87057600       0.22181900       1.58548900
H       -4.05643700       0.34797700       2.74170900
C       -6.46642700      -0.25766400       0.41333500
H       -6.16052400      -1.36866700      -1.41130500
H       -6.45273400       0.80196900       2.29681700
H       -7.51471900      -0.05380100       0.21127100
C       -2.17485100      -2.19380900       2.29163900
C       -0.82820500      -2.32008800       2.84503000
H       -2.88662100      -1.99878000       3.10301700
H       -2.48336200      -3.12682000       1.80321200
C        0.28433800      -2.38925600       3.31533900
H        1.25944700      -2.45614200       3.74372300
Cl      -1.65783800       0.97976000      -2.24859400
Cl      -1.29778700      -2.10230200      -2.62416400
O       -0.28714000       0.68282900       0.25491400
O        0.90783900      -0.86563900      -1.42798000
C        1.82406700       1.41173300      -0.29578200
C        2.26962600       0.09324300       0.20343000
C        2.08620900      -2.31037000       0.01544600
C       -0.01047300       2.98024900      -0.25323000
C        0.83157900       3.94711400      -0.76689400
C        2.70256100       2.37291100      -0.83364800
C        2.17283200       3.68044300      -1.10850200
C        3.14567300      -0.02040700       1.30770100
C        3.49691300      -1.34085000       1.75527200
C        2.95195300      -2.44895500       1.07845800
C        4.06517900       2.08998200      -1.12195500
C        3.02733600       4.66753300      -1.66236500
C        3.64980500       1.10891800       2.01114100
C        4.36826600      -1.49109700       2.86314200
H        3.21494000      -3.45480600       1.38539300
C        1.52042500      -3.47262000      -0.69290500
N        0.51543600       1.70060200      -0.10833200
N        1.76785000      -1.01753700      -0.37288600
C       -1.38479400       3.27662400       0.18581800
H        0.43775000       4.95070700      -0.88236700
C        4.34454100       4.36539700      -1.93514100
C        4.86349600       3.07132000      -1.66552600
H        4.46510200       1.10200500      -0.92338900
H        2.62593000       5.65576500      -1.86486200
H        4.99622100       5.12158500      -2.36232700
H        5.90188500       2.85369600      -1.89535000
C       -2.19721900       4.09390500      -0.61769500
C       -1.86431800       2.83455000       1.43081700
C       -3.94897700       4.00688300       1.04837900
C       -3.13757500       3.20609000       1.85821400
C       -3.47541500       4.45035800      -0.19037100
H       -1.83524600       4.42324500      -1.58703800
H       -4.10285200       5.06713500      -0.82725300
H       -4.94627900       4.28134700       1.38042300
H       -3.49850300       2.86800400       2.82455900
H       -1.23855300       2.21678800       2.06531500
C        1.73744500      -3.66500900      -2.06568100
C        0.83318700      -4.44130300       0.05465100
C        0.58142900      -5.78851100      -1.93973700
C        0.35612400      -5.59221600      -0.57381100
C        1.27621200      -4.82678000      -2.68133300
H        2.26749600      -2.91320100      -2.64059000
H        1.45184300      -4.97797700      -3.74246200
H        0.21381600      -6.68735400      -2.42708000
H       -0.19112700      -6.33261600       0.00266200
H        0.65490400      -4.27206800       1.11244300
C        4.48568300       0.92546800       3.08959800
C        4.85457000      -0.37778400       3.51388100
H        4.63460600      -2.49224900       3.18795600
H        3.37193200       2.10977400       1.70460200
H        4.86464900       1.78944300       3.62642500
H        5.51860400      -0.49357700       4.36511000
