77
Properties=species:S:1:pos:R:3 pbc="F F F"
Si       0.61955100       0.76742800      -0.11996100
O        2.22334500       0.89734300       0.33495000
C        3.35721400       1.46955500      -0.31265100
C        4.61105500       0.99391000       0.39060500
H        3.39097300       1.14486900      -1.35806700
C        4.69233900       0.97857600       1.78893600
C        5.71663000       0.58936100      -0.36415200
C        5.86298800       0.55587600       2.42202500
H        3.82918800       1.27838400       2.37620500
C        6.89275800       0.17284400       0.26663400
H        5.65026600       0.58820300      -1.44986300
C        6.96743900       0.15272900       1.66227600
H        5.91422700       0.53823100       3.50784500
H        7.74309000      -0.14689300      -0.33028800
H        7.87752000      -0.17882000       2.15562400
C        3.27679900       3.02306200      -0.28493000
C        2.11566900       3.52858000      -1.01015400
H        4.20280500       3.41974300      -0.71939600
H        3.23546900       3.34674600       0.76263900
C        1.11293500       3.87611900      -1.59238500
H        0.21331000       4.18615100      -2.07897800
Cl       1.05602100       0.21619900      -2.19002200
Cl      -0.00614500       2.18948300       1.41461400
O        0.26368700      -0.71665400       0.78853500
O       -1.11644800       0.79131100      -0.87006200
C       -1.64044000      -1.69863400      -0.08775800
C       -2.40199900      -0.56211800       0.49158500
C       -2.96808400       1.77505800       0.23086700
C        0.52586400      -2.75426100      -0.37020500
C       -0.08027000      -3.76902400      -1.08315500
C       -2.27842600      -2.71342700      -0.83532900
C       -1.46311700      -3.78251100      -1.34890700
C       -3.39736900      -0.74065000       1.47404600
C       -4.19554100       0.40025900       1.83533100
C       -3.97137900       1.62010500       1.16626400
C       -3.67230700      -2.70106200      -1.11987200
C       -2.07297300      -4.81690400      -2.10373300
C       -3.62219300      -1.98806100       2.11846800
C       -5.20182100       0.25182800       2.82364800
H       -4.60765300       2.47289200       1.37486000
C       -2.74620000       3.03655900      -0.49905100
N       -0.30329300      -1.74233100       0.09416600
N       -2.17539000       0.66595800      -0.02869500
C        1.97680300      -2.71250800      -0.11699100
H        0.54488100      -4.57981800      -1.43933600
C       -3.42777400      -4.78371500      -2.35264500
C       -4.22752800      -3.71737700      -1.86383800
H       -4.29265800      -1.89085300      -0.75712900
H       -1.45373300      -5.62397300      -2.48290600
H       -3.89155100      -5.57467900      -2.93419800
H       -5.29032300      -3.70163700      -2.08389700
C        2.84372400      -2.97397200      -1.19233300
C        2.51001100      -2.47699600       1.16179000
C        4.74893100      -2.74367600       0.27973000
C        3.88945300      -2.49762400       1.35442000
C        4.22353600      -2.98316700      -0.99324500
H        2.43387200      -3.13854900      -2.18419200
H        4.88654200      -3.16399600      -1.83444200
H        5.82336900      -2.73181600       0.43280300
H        4.29615700      -2.30660100       2.34231400
H        1.84918300      -2.27864200       1.99729800
C       -2.58698200       3.06041200      -1.89537700
C       -2.77620800       4.24608500       0.21482100
C       -2.48109600       5.48083200      -1.84519200
C       -2.63666900       5.46081600      -0.45536700
C       -2.46309700       4.27911100      -2.56195000
H       -2.56686800       2.13267800      -2.45537800
H       -2.34952500       4.28927000      -3.64225000
H       -2.37205300       6.42739200      -2.36712000
H       -2.64326200       6.38949600       0.10776100
H       -2.88059400       4.22821800       1.29530500
C       -4.60200700      -2.09187400       3.07981000
C       -5.39816100      -0.96967800       3.43138600
H       -5.80595600       1.11333600       3.09100900
H       -3.01418700      -2.84720000       1.85893600
H       -4.76657200      -3.04150400       3.57923000
H       -6.16647200      -1.07921400       4.19079700
