77
Properties=species:S:1:pos:R:3 pbc="F F F"
Si      -0.50465800       1.35857700      -0.82983300
O       -1.95712300       1.12291100      -0.09235600
C       -2.51487500       1.43784600       1.21370300
C       -1.51033300       1.17350800       2.32024500
H       -3.32362700       0.70600700       1.31068800
C       -1.35599000      -0.14793000       2.76282700
C       -0.69343700       2.16857900       2.87227100
C       -0.38441800      -0.48277200       3.70629400
H       -2.00447100      -0.91935100       2.35903200
C        0.27744200       1.83989800       3.82222800
H       -0.79388100       3.19770900       2.54906400
C        0.44279000       0.51400700       4.23429300
H       -0.27478100      -1.51398500       4.03032400
H        0.90846400       2.62176400       4.23672200
H        1.20253200       0.26119000       4.96930600
C       -3.16283500       2.83706100       1.25007300
C       -4.19518000       3.00003900       0.22959600
H       -3.60447600       2.95887500       2.24813500
H       -2.40150900       3.61308700       1.13260500
C       -5.04886100       3.11338700      -0.61950900
H       -5.79747800       3.21488200      -1.37415600
Cl      -0.27085900       1.83701800      -2.88879900
Cl      -0.11062100       3.44184300      -0.23446300
O        0.83642500       0.80091800       0.22286800
O       -0.59291500      -0.40370900      -1.55129900
C        1.60747500      -1.28867600      -0.45765400
C        0.31061500      -1.83685400      -0.00079300
C       -2.06362500      -1.90289700      -0.43854500
C        3.05153800       0.65235200      -0.55699800
C        4.02854300      -0.12054000      -1.14913800
C        2.59024800      -2.10061100      -1.06614000
C        3.83404900      -1.48466900      -1.44374900
C        0.20883100      -2.81175500       1.01229900
C       -1.09365900      -3.35518200       1.27937200
C       -2.18519400      -2.89499100       0.51718100
C        2.37799600      -3.47782900      -1.35140500
C        4.83363200      -2.27002100      -2.07120700
C        1.32238600      -3.24430200       1.78116400
C       -1.23806600      -4.33282400       2.29650600
H       -3.16691300      -3.32540600       0.67837800
C       -3.21615800      -1.40935000      -1.21179100
N        1.83988800       0.03042500      -0.28395000
N       -0.78790000      -1.39170500      -0.64489000
C        3.27065600       2.05674300      -0.17108100
H        4.98246400       0.34739000      -1.36445400
C        4.60313000      -3.60481800      -2.32629100
C        3.36823600      -4.20742800      -1.96990000
H        1.43598400      -3.94638500      -1.09324500
H        5.77345700      -1.80086700      -2.34574900
H        5.36840600      -4.20399300      -2.81035600
H        3.20124300      -5.25639000      -2.19346700
C        3.85793700       2.93367900      -1.09687100
C        2.98810300       2.50221600       1.13184300
C        3.86811100       4.68688000       0.57036600
C        3.29481700       3.80999900       1.49805100
C        4.14668800       4.24780500      -0.72742200
H        4.06534800       2.59004100      -2.10605100
H        4.58444400       4.92706400      -1.45308600
H        4.09387200       5.71011800       0.85761700
H        3.07732500       4.14805400       2.50716700
H        2.52919700       1.83234400       1.85027100
C       -4.43812300      -1.22412800      -0.54017400
C       -3.15265900      -1.18070000      -2.59773300
C       -5.49829400      -0.56952100      -2.61235000
C       -4.29029900      -0.76753300      -3.28910200
C       -5.56915800      -0.80105500      -1.23569300
H       -4.49699100      -1.38761400       0.53157300
H       -6.50051100      -0.64215500      -0.70011600
H       -6.37832100      -0.23523500      -3.15478300
H       -4.23107200      -0.59745900      -4.36032900
H       -2.22284200      -1.33058100      -3.13193300
C        1.14321000      -4.18705600       2.76841600
C       -0.13998100      -4.73810600       3.02448600
H       -2.22333400      -4.74440900       2.49272600
H        2.30304700      -2.82080300       1.59831600
H        1.99168600      -4.50950200       3.36374000
H       -0.25362400      -5.48180800       3.80734600
