15

C -2.343889484 1.591573262 1.157191348
O -1.582813343 1.871200686 -1.396872191
C 0.545584285 0.406938650 -2.015371067
C -0.038314216 -2.411441278 -2.055494072
C -0.490909538 1.046142480 3.113735543
C 2.058378247 0.654455583 2.162140671
O 2.600363681 0.997332045 -0.440091760
H -3.801579770 0.111779908 1.366681019
H -3.321883716 3.333818433 1.708388573
H 1.107848180 1.029119563 -3.896915131
H 1.646405877 -3.455042814 -2.618318328
H -1.538261178 -2.779552671 -3.418645820
H -0.654187695 -3.127858524 -0.221276933
H 3.322697073 1.899998657 3.230803490
H 2.578976195 -1.262748067 2.806953227

