10

C -1.714691301 -2.849528606 0.639472870
C -2.114264989 -0.257518818 -0.565320017
C -2.347860309 1.784638228 1.396073536
O -1.121034935 3.690510607 1.444052548
H -3.787136102 1.416660553 2.885048881
H -0.587132635 0.238875857 -1.856862011
H -3.883504066 -0.261040209 -1.642974304
H 0.076126956 -2.923925082 1.659387540
H -1.689106355 -4.326974561 -0.795484162
H -3.223997283 -3.297128474 1.974637982

