14

C -0.918689486 -2.877355144 0.159010910
C -0.937557948 -0.154440664 -0.529873423
C -1.837629115 1.835483180 1.168393493
O -1.271137430 4.155118332 0.581864248
C 2.744774208 1.663222947 -0.712352237
C 4.562546762 0.365670074 -1.182313688
H -0.725368671 -3.156692022 2.188784298
H 0.636504904 -3.817110126 -0.806497750
H -2.655632520 -3.781608483 -0.499542506
H -1.089729921 0.304198077 -2.525504675
H -3.822137251 1.192849705 0.481531129
H -1.771153917 1.258043253 3.175892830
H 1.313817405 3.290471838 -0.225643768
H 6.170236686 -0.774134584 -1.600346429

