15

O -0.158601237 -0.485911571 -2.989295471
C -0.796687766 -0.187249258 -0.012313399
C 1.515238059 -0.785202899 1.503860415
C 3.878764160 0.564204342 0.701676853
O 4.230303977 1.394704599 -1.396098405
C -3.435313847 -0.928624211 0.509415682
C -2.650894277 1.774550586 -0.053009123
H 1.497017093 0.358759988 -3.136379129
H 1.125319114 -0.347015189 3.483564828
H 1.981676003 -2.809815274 1.453490332
H 5.393516522 0.713777128 2.131298300
H -3.784022419 -1.576880793 2.436039069
H -4.493846619 -1.991254420 -0.894146271
H -1.510869787 0.987220839 -3.064512334
H -2.732310708 3.233825049 1.379792601

