17

C -3.213271065 -1.216685274 0.294159172
C -2.843268831 1.168772629 -1.207324724
C -0.596705458 -0.298425625 -0.284106585
C 0.944846017 -1.740651867 -2.203392070
C 2.809498046 -0.689697199 3.246016976
C 3.546166787 1.638759421 1.844877198
C 0.865626203 0.814076478 1.887131020
H -3.881331920 -2.883021809 -0.686716496
H -3.889574811 -1.050483635 2.217781181
H -3.255702446 1.122260819 -3.211201645
H -3.272633372 2.952227964 -0.301332780
H -0.276668641 -2.513078044 -3.673267196
H 2.331884186 -0.521055224 -3.127478973
H 1.949554873 -3.315936956 -1.321318427
H 4.778624585 1.238054562 0.250194089
H 4.120642206 3.292158721 2.910019854
H -0.303263116 1.869191302 3.214212507

