17

C -2.349523835 -0.106412821 1.904360447
C -1.657033923 1.427418688 -0.055180948
C -2.748672297 1.153557386 -2.649678503
N 2.299820863 0.349540563 -1.185684128
C 3.945297033 0.244103974 1.085492644
C 2.988444301 -1.858128127 -0.389861214
H -0.304860596 -2.228308770 1.890317892
H -2.052690210 0.484471638 3.842216970
H -3.805734428 -1.523084032 1.613820177
H -0.738332815 3.204147259 0.369585738
H -3.237704392 -0.812130967 -3.045107682
H -1.426872387 1.802318714 -4.085779840
H -4.481521258 2.271438613 -2.803494840
H 3.059953503 0.584646511 2.917281032
H 5.850610223 0.973228286 0.876584650
H 3.462932459 -3.604882581 -1.335383300
H 1.055494338 -2.992977546 1.399656721

