10

C -2.350586126 0.347503551 1.112241925
C -0.826527033 2.111024581 2.517452174
N 1.705219218 2.136761234 1.773697224
C 2.530060427 0.685394595 -0.010679617
N 1.075007329 -0.960958275 -1.306508473
C -1.417340967 -1.147514741 -0.748671167
H -4.343930280 0.200251046 1.560596985
H 1.846223023 -2.034946380 -2.673886443
H 4.509583672 0.733651472 -0.564106870
H -2.496767742 -2.496138161 -1.849102663

