10

C -2.387647321 0.183513080 0.723390864
C -0.479908403 2.071537299 0.034418772
N 1.695742261 2.092748907 1.468468623
C 2.717551626 0.210638115 0.346612489
N 1.059353669 -0.805109671 -1.540800876
C -1.293701648 -1.741809229 -0.459616524
H -4.098702429 0.405997945 1.803434143
H 0.273974100 1.296283562 -2.270013514
H 4.625869273 -0.487095315 0.579477997
H -1.881587679 -3.651675753 -0.874340789

