8

C -3.765304663 -1.379325744 0.065415610
C -1.052713474 -0.823776461 -0.133190656
N 0.993972131 -1.655791995 -0.252426403
N 3.209277544 -2.339293708 -0.678578655
H 4.117162521 -2.542775676 1.005843353
H -4.499829076 -0.619785609 1.833910815
H -4.777720710 -0.443161998 -1.464619723
H -4.146581645 -3.406534395 -0.011260651

