15

C -1.277306479 -1.785001207 -2.226826998
C -1.302935209 0.286819721 -0.405248555
C -2.239212528 0.082828813 2.181772261
C 2.450910797 4.353150273 -1.236905230
C 3.331578200 2.400811380 -0.253840901
C 4.088026856 0.118409823 0.842406855
O 2.606501379 -1.632472662 1.243258565
H -3.091549100 -1.617077422 -3.236936691
H 0.185648735 -1.485555564 -3.644601998
H -1.123622839 -3.641216251 -1.367259219
H -1.181899782 2.180167203 -1.180395824
H -2.089650890 -1.804649256 2.971525526
H -1.329569274 1.478924250 3.391697305
H -4.239845904 0.650826024 2.064340579
H 6.087217275 -0.121866869 1.366025303

