10

C -2.682224065 1.558666535 1.322088831
C -3.248809670 -0.994339702 0.136451416
N -1.338562991 -2.862678322 0.669051279
C -0.058080468 -3.551945740 2.395999514
O 1.283004041 -4.376104417 3.943448181
H -5.069471861 -1.712696222 0.796643282
H -3.380118027 -0.819884475 -1.912774075
H -0.879065765 2.294388524 0.646592470
H -4.159303981 2.911246626 0.831298818
H -2.597372433 1.415926110 3.378243910

