11

N 2.298218583 -2.514572137 0.500227721
C 3.340032514 -0.486709565 0.183575309
C 1.195388004 1.713114853 0.205857882
C -0.859911029 0.688045030 -1.585192678
C -1.540640060 -0.703043295 0.802638570
O -0.393727953 1.094063554 2.248832613
H 1.910260153 3.631817169 0.218679958
H -2.213402818 2.204406947 -1.943596188
H -0.361939641 -0.310181101 -3.305302541
H -3.263332915 -1.573949941 1.486506077
H 1.093235873 -3.881597256 1.022348523

