13

C 3.526809869 -0.846717207 -1.029125383
C 0.915845789 -1.339713758 -0.126790267
C -0.182585735 -1.601084651 2.126590444
H 0.531387377 -1.530752786 4.045508378
C -2.796331795 -2.034185463 1.059971817
H -4.204031285 -0.591855986 1.505382211
H -3.620232770 -3.893883216 1.411333585
C -1.519999810 -1.732783425 -1.577020633
H -1.581213047 -3.417524664 -2.770150244
H -2.170904219 -0.114405191 -2.682736181
H 3.597705515 0.886009904 -2.152567659
H 4.185368501 -2.381808804 -2.245213202
H 4.841550160 -0.653210801 0.546133722

