17

C 3.709980682 0.090589143 0.020536032
C 0.990751679 -0.677731283 0.093300182
C 0.087962688 -2.799535825 1.056521593
C -2.670737686 -2.613774292 0.730735663
C -2.573962620 -0.016473083 -0.642932883
C -0.474110402 2.981807847 -1.558938958
O 0.493812667 4.454171157 0.266937931
H 3.997589005 1.982837031 0.781108391
H 4.457178354 0.050302506 -1.903388353
H 4.805521114 -1.237292209 1.164880133
H 1.187619794 -4.309468781 1.906763933
H -3.723788401 -2.526574165 2.507148952
H -3.525197063 -4.089422703 -0.440098941
H -3.088763492 -0.202137862 -2.617873467
H -3.867491282 1.299578508 0.255731062
H 1.087701281 2.378096400 -2.772823413
H -0.883551881 5.236991036 1.154667335

