12

O -3.963970834 1.483090926 0.867235305
C -3.868761273 -0.912563863 -0.222112928
C 0.308159737 -0.210143195 -1.730815256
N 2.229542969 1.051565125 -2.131657877
N 4.313568013 0.650059570 -0.536341747
C 4.324456822 -0.859825991 1.376415925
N -1.615376064 -1.416267735 -1.698113773
H -4.291867815 2.718329381 -0.419453116
H -5.481341146 -1.265706282 -1.464572782
H -3.904621585 -2.277052876 1.319602631
H 5.753846381 1.753519976 -1.148185178
H 6.231831175 -0.718895981 2.197827166

