12

O -4.146011383 1.412072411 -2.058642960
C -3.433420284 0.181134765 0.068931408
C -0.177069095 -0.236924772 0.084240873
N 1.334936682 1.533249436 0.715223865
N 3.816134120 0.606170737 0.216500064
C 4.317921431 -1.592578464 -0.655416660
N -0.800694704 -2.322397100 -0.680045045
H -4.501077920 0.207681638 -3.370940232
H -4.527415959 -1.476511675 0.583192064
H -3.310516768 1.487329582 1.661453161
H 5.064707955 1.980372413 0.677840944
H 6.375813358 -1.780944456 -0.827786705

