12

N -3.854932862 -1.687041981 -1.182847177
C -3.299737695 0.504956420 -1.434806062
C -1.616683376 2.068534089 0.120801952
C 0.444762842 0.183302036 0.920898425
C 2.018663385 -1.451900676 -0.695664311
N 2.988564525 0.799429910 0.555207091
H -0.696952538 3.690345955 -0.758481019
H -2.806814805 2.717105103 1.668834621
H -2.699960619 -2.540245427 0.234640150
H 1.956609296 -1.306621517 -2.742864923
H 2.497434853 -3.314318595 0.017537887
H 4.127154600 0.583413559 2.075415224

