17

C -5.111253346 1.071988472 -0.152182347
C -3.540538578 -0.875403873 -0.191709805
C -1.408905211 -1.208743190 -2.025640934
C 1.180934680 -1.357007776 -0.746104352
C 1.882491818 1.091183063 0.627694737
C 4.371036663 0.973883454 1.811670212
C 6.417300367 0.841011784 2.769969889
H -4.946812950 2.600581472 -1.509920899
H -6.618600910 1.212369367 1.225531838
H 0.466879950 1.519227271 2.070004939
H -3.767102341 -2.366286858 1.208221361
H -1.706014283 -2.952972648 -3.097185605
H -1.427478365 0.341439533 -3.394589493
H 1.211505422 -2.922430536 0.603379196
H 1.846787049 2.672689755 -0.704817748
H 2.624453966 -1.775321292 -2.161028605
H 8.232491649 0.737622260 3.628916874

