21

C 1.584443439 -1.056734735 3.196423873
C 1.236505175 -0.733209617 -2.889362596
C 0.134951541 0.932700804 -0.876108854
C 1.278276286 3.539985531 -0.603575727
C -1.309516407 0.466376357 -3.274190015
C -0.703932506 -0.240489551 1.631108109
C -2.555861557 -2.436675113 1.378826346
H 2.589236690 -2.599366813 2.258744907
H 2.924388538 0.483925072 3.479723507
H 1.000008105 -1.724804756 5.059608813
H 2.826281006 -0.022261824 -3.963700093
H 1.285106021 -2.753990497 -2.566098354
H 1.871395668 4.281922054 -2.434801751
H 2.939382040 3.527932083 0.621756008
H -0.093309347 4.861814146 0.197500606
H -1.455834046 2.014584222 -4.604712693
H -2.945250717 -0.757468296 -3.240685265
H -1.681991725 1.260775816 2.674664084
H -2.995900858 -3.205315847 3.242322732
H -1.769365065 -3.981872398 0.253651002
H -4.332925687 -1.851469621 0.514928184

