11

N 1.211558882 1.726571139 1.241091541
C 1.269512247 0.682939633 -1.319163629
O 0.809822137 -1.951749657 -1.083113706
C -1.368261756 -1.858337301 0.541869650
C -1.466173380 1.033468598 0.822019091
O -1.148093526 1.749771458 -1.786741153
H 2.133117936 0.618041090 2.512007155
H 2.778785631 1.077434701 -2.650437889
H -1.016560462 -2.868496392 2.306375511
H -3.020485080 -2.630015468 -0.415726009
H -2.970230383 1.969466520 1.859896193

