13

C 4.128251340 -0.298739546 -0.530865605
O 1.763754713 0.942010048 -0.940955071
C -0.244447677 -0.500847078 -0.753640504
C -2.862813645 0.197946903 2.115097130
O -4.395789902 0.075075399 -0.003100719
C -2.616994612 0.344058807 -1.895508932
O -3.069647986 0.985710966 -4.004996221
H 4.381806401 -0.683506267 1.480700102
H 5.587913782 0.994241719 -1.180305476
H 4.188412906 -2.058836733 -1.597615492
H -0.894259598 -1.269853626 1.388016348
H -2.330292508 2.094756534 2.698163149
H -3.536535212 -1.001197196 3.645921329

