12

C -2.353051765 -0.586601357 -0.114203425
O -1.491342775 1.466649005 -1.636067223
C 0.658470552 2.487354052 -0.825438588
C 2.363819311 -1.274926936 -0.559013623
O 1.488427985 0.291509776 1.931836026
C 0.060074545 -1.714748654 0.905735017
H -3.560030933 0.096357022 1.421785849
H -3.418402612 -1.848781391 -1.343617630
H 1.980190753 2.905103202 -2.327713485
H 0.493511464 3.919469654 0.644618141
H 3.893957993 -2.502574020 0.101284350
H -0.131260093 -3.312171393 2.180342343

