12

C 3.406489911 -0.929029349 0.232987206
C 1.833555036 0.178320699 -1.920360683
C -0.940867520 -0.254356173 -1.562311439
C -2.665855352 1.545011223 -1.346781693
H -2.157074863 3.529980055 -1.442386660
H -4.646483974 1.107934824 -1.070103792
H -1.535575745 -2.220954920 -1.447881625
H 2.195779743 2.204892229 -2.095295767
H 2.428881372 -0.685672101 -3.704586724
H 5.422116242 -0.636357147 -0.091493925
H 2.909873797 -0.048912877 2.031542436
H 3.086000354 -2.960001938 0.420817555

