17

C 4.017188129 1.390335288 0.380002267
C 1.501318204 0.056998278 0.568644537
C -2.843254998 -3.706389069 -0.338577713
C -1.474312109 -1.975157449 -1.894933851
C -2.971783663 0.066489466 -0.245854200
C -0.817502419 1.771559245 0.630603497
O 1.128230048 -1.439823077 -1.623751387
H 4.066009109 2.591741257 -1.295699561
H 5.549174623 0.019967545 0.241389344
H 4.339241227 2.560708194 2.047885033
H 1.494174076 -1.157026583 2.255302053
H -1.684388711 -4.103391596 1.351928324
H -1.956635374 -1.874983710 -3.889468816
H -3.948317061 -0.817285667 1.379036691
H -4.447277644 0.939263464 -1.369260004
H -0.562725385 3.305795438 -0.727266352
H -1.150184111 2.589214750 2.491632260

