13

C 0.729969398 0.938397270 2.436379087
O 1.162295952 -1.663653294 1.862906905
C 0.829878179 -1.886403665 -0.804028350
C -1.886555089 -1.256608346 -1.509382592
O -1.769449876 1.504962824 -1.428540032
C 0.546049082 2.158708248 -0.147790661
C 1.872314415 0.493798457 -2.018206109
H 2.313904992 1.683816936 3.532157567
H -1.013969288 1.170859680 3.523101716
H 1.558529606 -3.698394752 -1.429757526
H -3.262399862 -1.956819698 -0.139255260
H 0.794149845 4.190212134 -0.269744742
H -2.410171250 -1.820459725 -3.416533597

