21

C 3.546586552 -3.359507634 0.779969283
O 2.963408755 -0.437020067 -2.176258229
C 1.546628583 1.495340056 -1.591163003
C -1.097727430 0.788513397 0.011056712
C -2.143177610 3.353754193 0.799109545
C -2.836258023 -0.603314284 -1.811003366
C -0.350983293 -0.778166050 2.137432521
H 3.117440502 -4.479090919 2.458813443
H 5.307888685 -2.338130695 0.907285669
H 3.333868057 -4.404371904 -0.957723726
H 0.643813439 2.384880157 -3.251285060
H 2.484612891 2.980690754 -0.442702227
H -0.915965314 4.286016184 2.170159573
H -4.019241714 3.168134144 1.639730797
H -2.301342149 4.584719769 -0.854483547
H -1.881989208 -2.258608922 -2.589802833
H -3.362702368 0.615617535 -3.390882058
H -4.570459895 -1.222677652 -0.875205490
H 1.637019872 -1.814696268 1.265919367
H -1.423563080 -2.482877272 2.541785497
H 0.322091780 0.182222700 3.826491331

