11

C -2.728488492 -0.334498683 0.111056105
C 0.116975219 -0.159063293 0.117862540
C 1.693157399 -2.436317803 0.288216814
O 3.970489576 -2.498901621 0.254651518
N 2.445580976 4.001371915 0.053653274
C 1.328278836 2.020713058 -0.033151768
H -3.278398038 -2.322540719 0.099681711
H -3.561818557 0.532692252 1.785538399
H -3.561299884 0.546102353 -1.555337159
H 0.575465125 -4.204798665 0.451849881
H 3.050182825 4.821345189 -1.569427430

