11

C -2.807250311 -0.169807539 0.060485333
C 0.013040698 -0.039289787 0.007962248
C 1.752313083 -2.106983213 0.290039417
O 4.053540999 -1.894197613 0.235736985
N 3.762509853 2.724973469 -0.441816116
C 1.571740284 1.991037687 -0.307043230
H -3.378788378 -2.142896910 0.239613852
H -3.623960689 0.846596869 1.660058619
H -3.664905347 0.554915072 -1.670253918
H 0.869755236 -3.976120034 0.564547100
H 1.470136495 4.201293469 -0.637920574

