10

C 2.848093567 -0.576125509 -0.492440235
C 4.338245870 -2.505108369 -0.640265308
C 0.223477160 0.021692280 -0.040518752
C -1.055770900 2.269684815 0.083924929
N -3.521564859 1.776990790 0.560038762
N -3.836827358 -0.632964295 0.734876620
N -1.599890854 -1.717768701 0.378522971
H 4.211703384 0.963820870 -0.855150034
H -0.355510472 4.168260036 -0.136347141
H -1.456554277 -3.612543588 0.440481346

