10

C 3.577356660 -0.084894926 -0.339540396
C 2.524145074 -0.896113231 -2.293217518
C 0.173749035 -0.188112560 -0.700646045
C -1.152849475 2.014922748 -0.278495572
N -3.302726901 1.456114122 0.986509319
N -3.398329015 -0.953234341 1.373381591
N -1.318035954 -1.962837039 0.400457778
H 4.598608878 0.600305953 1.269910450
H -0.670406496 3.914044459 -0.828676615
H -1.067116154 -3.847279036 0.423157697

