10

C -2.782913813 -0.317903410 0.172230357
C -0.127604267 -1.006044590 0.791689516
N 1.146432967 -2.434551930 1.939973300
O 5.006967601 -0.837270674 0.777571845
N 4.006718952 0.741011332 -0.474835490
C 1.904854705 1.422497992 -1.053569066
H -3.157256389 1.638741318 0.694021705
H -4.065750103 -1.552508164 1.199403975
H -3.112214615 -0.526205767 -1.850485357
H 1.146451335 2.901770311 -2.219628011

