12

O -1.007391945 -3.169182828 0.559515950
C -0.518097972 -0.623625419 1.483272869
C -1.839647192 1.546348942 0.221279521
C 2.003932252 0.636720012 0.680070688
C 0.319506314 2.731764200 -0.293017286
C -0.819161051 -3.494798154 -1.835495350
N -0.656972471 -3.861779680 -3.975830793
H -0.800839853 -0.814581337 3.510439531
H -3.818265372 1.989105499 -0.030590641
H 3.001434675 -0.409812943 -0.789955333
H 3.311715119 1.090683476 2.208004551
H 0.753368724 4.574291353 -1.066616076

