9

N -2.168300045 -1.319240465 0.331699979
C -2.184961042 1.143110791 0.341076120
C 0.574629073 1.708260071 -0.080554168
C 1.771756683 -0.847338435 -0.270061006
N 0.164109637 -2.615581116 -0.028467212
H -3.687195310 -2.443134593 0.558632276
H 0.826168079 2.848426574 -1.787264078
H 1.328947459 2.843904762 1.473958277
H 3.744657270 -1.288257007 -0.573808176

