9

N -1.937092242 -1.147032010 0.009951354
C -1.335645745 1.328216060 -0.018860393
C 1.254465265 1.447004962 -0.015608817
C 2.031338704 -1.097578558 0.018462190
N 0.081599092 -2.657124458 0.034842430
H -3.668309084 -1.921323971 0.015211672
H -2.763388899 2.781104438 -0.041506852
H 2.411791293 3.120452782 -0.034387120
H 3.925241615 -1.853719245 0.031895535

