8

N 5.066544883 -0.602255754 0.060182769
C 2.896850863 -0.512914473 0.152373342
C 0.234961535 -0.310850971 0.257559239
C -1.213139317 2.039249457 0.127989185
O -3.482932980 2.126792305 0.223002441
N -2.377305549 -4.065373953 0.700683783
N -1.109697164 -2.410435415 0.499535438
H -0.015282291 3.735788785 -0.065206455

