8

N 5.372858338 -0.515144085 0.693006279
C 3.202547530 -0.551321058 0.572825405
C 0.549006635 -0.533316145 0.413974516
C -0.977856339 1.677398500 -0.073912253
O -0.883111764 3.822826812 -0.448900132
N -3.258565268 -2.152873549 0.469948412
N -1.059807336 -2.509897691 0.668407412
H -3.320095525 0.248745009 0.034661886

