12

O -4.865251993 2.163435039 -0.222479365
C -3.476992758 0.397729486 0.045185544
C -0.831267184 0.315713917 -1.072224499
C 0.988458723 1.936463757 0.421443054
N 2.849287212 0.715987787 1.265142142
C 2.580311721 -1.874816507 0.465703256
O 0.241618530 -2.098219740 -0.863966003
H -4.000133899 -1.297807570 1.159535024
H -0.952252950 0.952051335 -3.044127046
H 0.715174354 3.942799760 0.740899857
H 2.568755989 -3.131689925 2.104516704
H 4.152782272 -2.388441271 -0.775975782

