12

O -4.722985190 1.742022882 0.421948008
C -3.346836416 -0.017982445 0.049555157
C -0.831291448 0.304613760 -1.254733511
C 1.285364101 1.477544713 0.464488634
N 3.602991211 0.961654129 -0.571496152
C 2.570573471 -1.337136531 0.011186007
O 0.452219644 -2.027567567 -1.556577046
H -3.813016034 -1.958665299 0.680380074
H -1.037797242 1.392833525 -2.994722160
H 0.974993385 2.854997719 1.967250551
H 1.153514546 -0.790922212 2.047558866
H 3.676094945 -2.844044866 0.863602496

