13

C -3.399347691 0.017573962 2.860735929
C -1.285855657 -1.364581647 1.592070676
C 0.849820969 -0.272883237 0.879508131
O 2.795239835 -1.588818401 -0.153363672
C 4.537068397 -0.118987191 -1.532083701
H 6.084961755 -1.363994604 -2.064721321
H 3.674883479 0.662897613 -3.243199281
H 5.285497358 1.433182145 -0.383410426
H 1.188053883 1.742528875 1.143636513
H -1.499597457 -3.378492806 1.262306305
H -2.971903301 2.025914094 3.061603970
H -5.157695142 -0.150557806 1.789840795
H -3.766609878 -0.738316186 4.748202338

