13

C -3.732737539 -0.075148134 -0.069979865
C -0.917452963 -0.045803031 -0.067126152
C 0.750009811 -0.124585788 -2.054867231
C 3.170163237 0.045614134 -0.902117835
O 5.524801181 -0.333195093 -1.334333935
N 2.896071634 0.426079894 1.572557005
N 0.390717203 0.088165475 2.146863558
H -4.489766284 1.813577947 0.279156636
H -4.464750543 -1.343900598 1.380472921
H -4.432160818 -0.708633464 -1.897557830
H 0.301501551 -0.408660021 -4.017993398
H 5.186930226 -0.235382907 1.310025688
H -0.298496074 0.893719325 3.724410234

