13

C -2.591567478 -0.941998804 0.555208395
C -0.271063959 0.376229297 -0.401809008
C 2.003327275 0.684665822 1.289691460
C 2.136573074 -1.017754788 -0.950868706
C -1.093993521 2.215660436 -2.898701509
N -0.795956007 3.765757215 -1.312452305
H -2.039333304 -2.437272153 1.866777612
H -3.815700106 0.375049843 1.560197573
H -3.655533912 -1.780436687 -0.997044939
H 1.837166907 -0.151474248 3.149368294
H 3.028935519 2.445949189 1.232663343
H 2.064613437 -3.044612819 -0.670899186
H 3.230508013 -0.408282983 -2.563758439

