15

C 4.216166898 0.830963448 0.192723076
C 1.582408695 -0.146056422 -0.018086002
C -2.091964747 -3.057460916 -0.704458511
C -2.624445765 -0.484951534 -1.654900763
C -2.630909932 -1.158102725 1.275305788
C -0.342153680 0.333383064 1.802043853
C -0.336619012 1.083357386 -1.454361912
H 4.270117426 2.904371992 0.155550746
H 5.108608202 0.184993511 1.932309553
H 5.343156435 0.159307541 -1.395739621
H -3.650974135 -4.378676259 -1.013961446
H -4.298550359 0.164538284 -2.638054741
H -4.311771922 -1.009094192 2.434391605
H -0.120944078 1.640064750 3.374650350
H -0.113350459 2.952656195 -2.283585281

