15

C -3.619323906 0.345163730 1.240813978
C -2.002043074 0.487805870 -1.128961126
N 0.630157069 -0.123085535 -0.634918441
C 1.631151214 -2.523527303 -0.259421621
C 4.178408470 -2.427812524 0.270169533
N 4.563321039 0.187094905 0.185569121
C 2.490468132 1.522494211 -0.342452030
H -5.580188846 0.793958208 0.788562416
H -3.560210741 -1.545066347 2.059175920
H -2.957523109 1.681240937 2.664175197
H -2.072836296 2.374511268 -1.956942908
H -2.682732610 -0.833056604 -2.558797038
H 0.396900898 -4.138856464 -0.426113304
H 6.260468236 0.986823335 0.474506432
H 2.318372928 3.544135029 -0.516785671

