15

C -3.610891702 0.295444790 1.215545599
C -1.992964527 0.452220759 -1.151993543
N 0.670049300 0.003998774 -0.623926415
C 1.763809289 -2.312759251 -0.187328740
C 4.200046552 -1.989688139 0.655681127
N 4.525574686 0.745533163 0.621571438
C 2.415206331 1.782018293 -0.260482986
H -5.586022393 0.652558222 0.745997299
H -3.477574170 -1.571626372 2.077710675
H -3.010434533 1.690696257 2.608398607
H -2.148971227 2.309181811 -2.032380208
H -2.590730103 -0.943538232 -2.546868860
H 0.681310745 -4.017493963 -0.474395164
H 6.094841904 -0.536748341 -0.250016530
H 2.061139232 3.772023018 -0.538929954

