16

C 3.282491374 0.178934860 -1.348174705
C 3.493317894 0.395844257 1.497871041
C 0.817489758 1.257697736 -0.575286093
C -1.155998061 -0.701121406 -0.180779686
C -3.535950682 -0.002309434 1.207280221
C -3.583043149 -0.188555947 -1.599995262
H 3.294619107 -1.762192685 -2.032073260
H 4.551152809 1.388097267 -2.413907295
H 3.321188751 -1.355144317 2.545682660
H 4.939875898 1.686934210 2.168357360
H 1.684584222 1.749118633 1.890969810
H -0.609060790 -2.688781528 -0.091602716
H -4.464346822 -1.467894051 2.289306786
H -3.600575215 1.867177950 2.033034941
H -4.515941334 -1.790658310 -2.462201646
H -3.663602230 1.550114032 -2.670748061

