11

N 4.927870865 0.499901289 -0.580675006
C 2.726769011 -0.459735841 -0.142876523
C 0.689957924 1.748284187 -0.526577268
C -1.509376544 0.830179798 -0.092978569
C -3.126771951 -1.045560237 0.541813752
O 1.861648857 -2.550160045 0.470413568
H 6.239281061 -0.888858742 -0.334096266
H 1.293808342 3.617128989 -1.058307706
H -3.793771611 1.515102566 -0.051098440
H -4.005553671 -2.191923379 -0.917845912
H -3.671586776 -1.323035187 2.502248534

