17

C 3.295953499 -1.397163549 -0.077011895
C 1.300203856 0.653542940 0.278315689
C 0.807124251 2.053990171 -2.195343254
C -3.381261840 1.082049261 1.824328335
O -4.902424021 -0.506485945 0.628426854
C -2.979753072 -2.075367641 -0.144856370
C -1.112074590 -0.479752217 1.362764241
H 3.728697947 -2.356869125 1.698379487
H 5.050065526 -0.593606628 -0.807551461
H 2.639900890 -2.815245232 -1.428315552
H 2.002625563 2.010928150 1.676512294
H -0.614588314 3.530291916 -1.963643461
H 2.535445976 2.945391218 -2.884195688
H -3.835152399 3.072936034 1.930470623
H 0.136611042 0.742295684 -3.639124437
H -3.370883710 -4.081786263 0.085289141
H -0.718753533 -1.614846657 3.058158244

