17

C 3.810367167 0.981369170 -0.296615683
C 1.672472665 -0.919621159 -0.443361175
C -0.004789492 -1.358397688 1.941448288
C -2.318387611 -0.688444594 0.363183837
O -4.584600300 -1.985690764 0.465475600
C -2.103729785 1.916995326 -0.684580255
C -0.706583772 -0.230523759 -1.935728295
H 5.264932791 0.355145982 1.027587751
H 3.143970443 2.829006785 0.338316326
H 4.700248667 1.233790130 -2.141930107
H 2.404102999 -2.731100906 -1.106371019
H 0.364036746 -0.148385906 3.575544092
H -0.015394692 -3.328105299 2.540264494
H -5.680379839 -1.144323220 1.639228508
H -3.753031667 2.542341776 -1.723328823
H -1.109963407 3.401264969 0.324013915
H -1.083270893 -0.725320823 -3.883147455

