17

C 3.912307460 1.017882760 -0.449951614
C 1.860517951 -0.986232134 -0.274640247
C 0.955718745 -1.526678178 2.422184371
C -2.584807153 -0.450474671 0.605147564
O -4.800448994 -1.769172294 0.356354537
C -2.018882707 2.045367502 -0.586477183
C -0.662796399 -0.303410553 -1.450026729
H 5.619411057 0.389910196 0.522688155
H 3.304636980 2.774656069 0.443253385
H 4.401910611 1.416193280 -2.416507143
H 2.533812364 -2.720593443 -1.178113243
H -1.587950657 -0.489866862 2.582816156
H 0.399064351 -3.532561988 2.490415446
H -6.074807444 -0.986934848 1.384539782
H -3.453345689 2.728974586 -1.873261735
H -1.043925095 3.476488919 0.503177659
H -1.159038007 -1.007150514 -3.305711194

