16

C 3.199965220 1.533109842 -0.078976114
C 2.022746517 -0.771029178 0.969890142
C -0.757266208 -0.766125811 1.751899233
C -1.849474901 -2.235689020 -0.561638472
C -0.940473134 0.180737847 -1.939911619
C -1.827807037 1.605997618 0.445319744
N 1.844512688 -0.194588368 -1.752262363
H 5.224579938 1.512756584 -0.388676526
H 2.445817551 3.385683969 0.339633730
H 3.185871132 -2.367921982 1.517361922
H -1.207839485 -1.252941654 3.697553106
H -0.929713733 -3.998135136 -1.102475821
H -3.897428777 -2.444417604 -0.508922955
H -1.542529446 0.690700719 -3.837160668
H -1.089288178 3.469312779 0.901954620
H -3.881672146 1.652549395 0.546412041

