13

C 3.433155836 -0.478346714 -1.423135094
C 1.366540953 -2.140631960 -0.430946657
C -1.106501561 -1.822414288 -0.771246818
C -3.102468561 -3.530382132 0.252662884
H -2.269325408 -5.089500236 1.303508722
H -4.244047143 -4.292629167 -1.288360904
H -4.367140595 -2.476607029 1.497434269
O -2.164567080 0.113502715 -2.104416133
H -0.857579939 1.211619164 -2.718695099
H 1.936987608 -3.757378264 0.687247358
H 4.880857257 -1.594773230 -2.381360561
H 4.371456106 0.559191050 0.097925910
H 2.779932846 0.922932696 -2.794738434

