18

C 3.696578253 -0.638535132 -1.681586247
C 1.601930511 -1.431268022 0.068558848
C -0.937488860 -0.668227510 -0.488197478
C -3.094437811 -1.873813875 0.855487558
C -0.923603114 3.017220105 1.799190177
O -1.582727058 0.368665177 -2.677647092
H 3.605956021 -1.492971095 -3.571711141
H 5.523580362 -1.161369287 -0.888918646
H 3.742749837 1.422333491 -1.923532853
H 0.764950723 0.599952178 1.378387060
H 1.761112668 -3.203420111 1.082681242
H -2.653266904 -2.140371650 2.843426680
H -3.386085971 -3.725324502 -0.020148525
H -4.807447444 -0.759029682 0.656922526
H -0.627793342 2.997703278 3.850207148
H -2.893961717 3.492684155 1.422067191
H 0.274027787 4.475732479 0.950171435
H -0.080960554 0.770781038 -3.626354349

