16

C -3.206386074 0.301180355 -1.052551505
C -0.784009234 0.941820849 0.328976487
C -0.215952629 -0.677713482 2.660375203
O 1.672047533 -2.092445493 1.299936195
C 1.654527032 -0.298371844 -0.707009414
O 1.596297786 -1.497735340 -3.045412589
N 3.795089374 1.335833130 -0.560816138
H -4.839276744 1.033828817 -0.027036444
H -3.224004804 1.115775354 -2.946807757
H -3.464568753 -1.741681049 -1.230912909
H 0.370487213 -2.835764785 -2.972161419
H -0.592135855 2.972394044 0.609953270
H 0.617826870 0.349132552 4.243912840
H -1.738699496 -1.902059479 3.326808588
H 5.385076778 0.309097098 -0.851066695
H 3.691092851 2.666228422 -1.931231332

