16

C 4.092271975 1.218471689 -1.822779326
O 2.746058882 0.825702111 0.449022152
C -0.001974745 -1.852624980 0.186293680
C -2.446535326 -0.933104525 1.197519955
C -2.114418643 1.709562338 0.377720480
O -4.561494241 -2.226182790 0.124432097
H 5.316425711 -0.404325065 -2.168518780
H 2.797626012 1.449063497 -3.425112103
H 5.271051856 2.905732160 -1.671994469
H 1.289327726 -3.016818066 1.263485570
H 0.075409559 -2.042690459 -1.852973144
H -2.479516016 -1.075422539 3.260134591
H -2.734737230 3.174072362 1.672297222
H -2.620750651 2.013347812 -1.590226606
H 1.018338581 1.822766457 0.443019815
H -4.786764845 -3.813688720 0.977569705

