15

C 3.522487102 0.553652357 0.383899279
C 0.737115529 0.331693290 -0.042089473
C -1.378258578 1.180656493 1.734548845
C -3.064090472 -0.363268950 -0.048328782
O -2.967972652 1.024300516 -2.342556755
C -0.339640306 0.614355972 -2.739218224
C -0.709779791 -2.023511723 -0.680959804
H 4.083549320 -0.303404694 2.175658922
H 4.561777945 -0.370408846 -1.138996933
H 4.084222762 2.538257926 0.409045789
H -1.806130178 3.192838042 1.882776657
H -1.200299365 0.317138581 3.596938966
H -4.948201597 -1.022430027 0.437375033
H -0.446055830 -1.784203780 -3.202002741
H -0.147577651 -3.975234414 -0.394660835

