10

O 3.211174678 -1.101984643 2.411010062
C 1.506518863 -0.140894541 0.886366193
O 1.601688475 2.139773060 0.096174077
C -1.527837525 1.918397824 0.212810978
C -1.849536129 0.286586208 -2.002357071
C -0.846917745 -1.159537159 0.270911874
H 4.428792910 0.197323388 2.810551776
H -3.818398749 -0.140548456 -2.383939168
H -0.641882989 0.414120063 -3.656127645
H -1.768700599 -2.693718343 1.238554602

