11

O -4.421471809 -0.612565381 0.005125901
C -2.215635719 -2.110676512 0.192332489
C -0.220137711 -1.312545241 -1.670686080
C 2.027581249 -0.564943546 -1.008826285
C 4.270076873 0.159239699 -0.315022542
H 4.668902438 2.127463195 0.087147271
H 5.802410472 -1.186375409 -0.126217302
H -0.730485822 -1.345020336 -3.659269749
H -1.431459735 -2.077555339 2.108072016
H -2.822252696 -4.040833535 -0.211480271
H -3.952450799 1.115935887 0.288467997

