13

O -4.499648550 -0.481158759 0.167901297
C -2.162484998 -1.740590564 0.310817712
C -0.137626203 -0.437124625 -1.259688827
C 0.573248382 2.749017777 0.492647254
O -0.920805923 3.940100399 1.527416683
C 2.366795403 -1.117769129 -1.075991309
C 4.389992052 -0.193096694 -0.268460654
H -4.353002156 1.128061957 0.991848400
H -1.508569442 -1.944771636 2.268629233
H -2.489772996 -3.637284638 -0.428610767
H -0.819062199 0.126669759 -3.120226714
H 3.160154605 2.040614916 0.442540580
H 6.385981709 -0.455088513 -0.028716203

