14

C -4.364719233 -1.445553256 0.174498482
C 0.775582492 -0.109528224 -0.098796412
C 3.471371975 0.666448125 -0.339637850
O 4.152199650 2.138628207 1.802616780
C -0.962671841 0.665124920 -1.739059754
O -3.444184788 0.114415301 -1.780437613
H -4.084462719 -0.562153573 2.023454937
H -3.427871519 -3.289982985 0.154707569
H -6.375581904 -1.692839906 -0.172592750
H 0.302033264 -1.305964856 1.492896753
H 4.680120116 -1.016273337 -0.450745374
H 3.734700927 1.744488067 -2.092437594
H 5.950973483 2.351402450 1.806022671
H -0.480134773 1.894992961 -3.307441050

