14

C -3.522006469 -2.053295508 0.459992957
C 0.271781318 0.400286380 0.006418190
C 3.017668934 0.176440554 -0.544763633
O 4.436015727 1.672315836 1.186453606
C -1.406308595 1.838929833 -1.390513659
O -3.739484334 1.464054090 -1.252429255
H -5.270811993 -1.403505356 1.286060087
H -2.311008741 -3.078983271 1.744550372
H -3.660418325 -2.846348367 -1.413610478
H -0.255638390 0.269310407 1.986857084
H 3.595337008 -1.812072327 -0.391538630
H 3.383862632 0.765720937 -2.501140512
H 6.195909031 1.297891360 0.968309801
H -0.754148425 3.376265121 -2.621842573

