13

C -3.753990552 -0.846155372 -0.271586733
C -0.964164082 -1.110995046 -0.786358447
O 0.324684938 0.660619076 0.822819012
C 2.854330494 0.768908225 0.609945389
C 4.174883337 -0.043009467 -1.788107633
N 4.225993606 2.358164721 -1.816895381
H -4.392399752 1.067749590 -0.691637513
H -4.811686761 -2.160056171 -1.456636291
H -4.179136921 -1.259800623 1.702239234
H -0.513489856 -0.694639702 -2.758648936
H -0.285539261 -3.015419839 -0.365992178
H 3.937920619 0.729319219 2.346463480
H 3.447022552 3.243038579 0.112294802

