20

C -2.370584644 3.269433536 1.462836502
C -0.940970245 0.834748986 1.818879253
N -1.442344425 -1.002143685 -0.357594859
C -2.003875749 -3.660170960 0.078888488
C 1.086853436 0.206165227 -0.010642805
C 3.200661886 -1.520253846 0.835529726
C 1.864324747 1.859210752 -2.223699407
H -4.224369859 3.165025922 2.364353688
H -1.340033349 4.781407188 2.420555692
H -2.679774357 3.898804384 -0.506633514
H -2.337263008 -0.296055550 -1.902454432
H -1.216558096 -4.844696308 -1.417033509
H -1.229299310 -4.195381328 1.901067203
H -4.049590923 -3.899141738 0.146278484
H 4.802217702 -0.346326875 1.397369264
H 2.646067066 -2.621315717 2.480675042
H 3.843702106 -2.779050892 -0.675364099
H 0.300469969 2.964991968 -2.982535751
H 2.685981181 0.751434759 -3.762253776
H 3.300528394 3.194719283 -1.582663260

