20

C -2.197262762 3.623191212 1.241914271
C -1.008077708 1.120801157 1.889171830
N -1.628652448 -1.055325434 -0.795646489
C -1.778461507 -3.809468016 -0.469513473
C 0.800387094 0.118191654 -0.046227161
C 2.864968046 -1.596856086 0.976648350
C 1.831401863 1.829533302 -2.108968427
H -3.817112110 4.017455488 2.450878067
H -0.757393198 5.058127494 1.641991363
H -2.757400640 3.856824515 -0.733250246
H -2.747137688 -0.545688030 1.074365578
H -0.421170764 -4.695107024 -1.741707827
H -1.399775982 -4.452800993 1.457274584
H -3.671189991 -4.411605946 -1.015917974
H 4.420169391 -0.418985862 1.646227052
H 2.211681316 -2.717048033 2.572110593
H 3.620988131 -2.848557891 -0.483289387
H 0.336471991 2.843085547 -3.088876309
H 2.856198243 0.712737684 -3.509735154
H 3.156998139 3.199265624 -1.314530002

