11

N 2.319841283 0.383073091 1.718450911
C 0.531892217 1.884985085 0.288831712
C 2.232794961 -0.847802231 -0.722055565
C -0.487800050 -2.011351392 -0.925154542
O -1.924296736 -1.835501718 1.372771966
C -1.843124968 0.266361943 -0.252423758
H 1.326904212 -0.627920275 3.020410813
H 0.616036392 3.921115889 0.508728351
H 1.700193378 1.526283962 -1.740653038
H -1.004677713 -3.477507122 -2.243448386
H -3.598086030 0.983613767 -1.016126997

