13

C 0.522308150 1.437807060 -2.464555376
C -0.448566067 3.314047665 -0.555677312
H 0.169216697 2.800582488 1.344520749
H -2.510571265 3.360290831 -0.578606682
H 0.246963791 5.208348929 -0.993680679
H -0.091769012 1.972487209 -4.371103200
C 3.319156161 0.664358182 -2.360260560
H 4.292682892 1.339985595 -0.675975595
H 4.453414020 1.079866873 -4.024369183
C 2.280508486 -2.026919259 -2.130993071
H 2.529087331 -3.196825326 -3.818940325
H 2.852210278 -3.110340858 -0.468984198
O -0.262025815 -1.113434324 -1.917938507

