15

C 3.226893439 -0.581973644 0.297401885
C 1.277600879 0.400879565 -1.582110705
C -1.399910587 0.727581275 -0.538524683
N -1.352145662 2.818217015 1.334551745
O -2.910874426 4.407241453 0.978752144
C -2.423758910 -1.584116838 0.839546188
H 3.302741112 0.597820888 1.985805432
H 2.810752200 -2.513756361 0.887685581
H 5.102078083 -0.589664168 -0.558905814
H 1.898079413 2.221261679 -2.340939527
H 1.151209741 -0.878681395 -3.200637490
H -2.689175499 1.285522555 -2.056281823
H -4.404056924 -1.308840414 1.340133353
H -2.285598444 -3.247578740 -0.371522046
H -1.366858654 -1.950145771 2.571010527

