15

C 3.341647341 0.003023826 0.479501223
C 1.159203831 -0.150878814 -1.411956665
C -1.365056063 0.025778529 -0.120776138
N -2.424325374 2.083592296 0.519968253
O -0.992570351 4.194047994 -0.137279910
C -2.735754470 -2.358538169 0.534870766
H 3.301024730 1.802825330 1.480291052
H 3.230087227 -1.512711590 1.875790339
H 5.155326332 -0.158882995 -0.487306397
H 1.327274390 1.376277389 -2.785855645
H 1.248211500 -1.937734390 -2.442520716
H -2.038026936 5.567377089 0.412330436
H -4.460571244 -1.942610696 1.574698197
H -3.213307499 -3.409168409 -1.178078207
H -1.533163396 -3.582397373 1.686323412

