15

C 3.167110063 -0.622723831 0.300305695
C 1.129927268 0.503051878 -1.406136271
C -1.510873907 0.603665414 -0.126187029
N -1.861850075 2.668850984 1.391527932
O -2.119378229 4.523737966 -0.122865665
C -2.419317921 -1.891977922 0.914314714
H 3.372820868 0.474203168 2.034133609
H 2.746511962 -2.572699413 0.820519707
H 4.981275092 -0.622230764 -0.682956017
H 1.693785941 2.388797843 -2.012893919
H 0.941455584 -0.634920274 -3.117049990
H -2.214756278 2.710934996 -1.761262562
H -4.452111639 -1.863460462 1.241682742
H -2.014534390 -3.406025133 -0.425254329
H -1.494768149 -2.366593788 2.699861843

