9

C -2.176873260 1.052632121 -2.118660379
C -2.964270716 -0.068111021 0.353267046
C -2.055261125 0.593138619 2.588380342
H -0.621947210 2.048295784 2.776360546
H -2.711119905 -0.290260629 4.314438175
H -4.399588346 -1.536866164 0.264177212
H -3.790130392 1.912679211 -3.080568600
H -1.429944874 -0.399307955 -3.383790010
H -0.729941732 2.498128836 -1.861213748

