15

C -3.015729659 0.212556489 -2.296647654
C -1.684033858 -0.576638078 0.112731385
C -0.281602225 1.184442899 1.492980884
C 3.766859417 1.132837937 0.421505944
O 4.569833886 3.174525764 0.255430444
C 3.749213154 -1.470559850 0.383141839
O 2.387992839 -2.676949405 -1.226386826
H -4.803308566 1.163696201 -1.892681959
H -3.427007272 -1.412212137 -3.496227260
H -1.842355283 1.510045904 -3.391288066
H 0.218776069 -2.009226339 -0.737960388
H -2.635897826 -2.030834733 1.217680933
H -0.112605340 3.111355678 0.815397321
H -0.017867436 0.955178132 3.509674286
H 4.310347296 -2.324445374 2.185698413

