10

O 4.572338283 1.669594668 2.855173614
C 3.247189419 0.302609328 1.787793976
C 1.798160390 -1.416990763 0.505378679
O 2.530494610 -3.495202404 -0.358367417
N -0.664460606 -0.505290202 0.297238480
C -2.535487890 0.998667798 0.551332567
H -3.005307555 2.810828715 1.333911845
C -3.061137813 -1.367761640 -0.802778372
H -3.963921002 -2.940250389 0.158035018
H -3.133714729 -1.400332752 -2.853493913

