12

O 4.746308454 1.844148595 2.357170045
C 3.270967125 0.716631692 1.253519249
C 1.754618190 -1.351114722 0.354025941
O 2.791425688 -3.351261418 -0.233296082
N -0.651580913 -0.621493714 0.109456150
C -3.080915573 -1.273735993 -0.951231931
C -2.262070220 1.309674691 -0.136711254
H 1.856143575 2.968251046 -1.557296730
H -4.226565815 -2.496149159 0.236072524
H -3.150587810 -1.667463643 -2.961856931
H 0.347702388 3.123193320 -1.630615628
H -2.920866013 2.546873792 1.350811421

