19

C 4.110009001 -0.728666753 -1.471448286
C 1.562928340 0.482711320 -1.339888558
C 0.461970914 0.875012851 1.243165477
C -1.946957822 2.535465610 1.584250158
C -3.622370012 0.146578572 1.758293481
C -3.037798580 -1.231811247 -0.597345943
C -1.231548178 -1.412049092 1.603090841
H 4.623787116 -1.297029702 -3.381980012
H 4.240106837 -2.369296474 -0.229884673
H 5.515631625 0.652871917 -0.814624725
H 1.161641369 1.860490474 -2.806671450
H 0.267875028 -2.258152931 -2.842463751
H 1.929414304 1.295785166 2.647152109
H -2.400572273 3.914977624 0.113639852
H -1.846320117 3.496333727 3.406459637
H -5.173872142 -0.082133677 3.070234992
H -1.024215459 -3.135047912 -2.625236936
H -2.580968193 -0.086290186 -2.236858760
H -0.843077065 -3.199199975 2.522856413

