14

C -2.442901004 -1.909218290 0.070929717
C -0.419041269 -0.094417048 0.959271355
C 2.319698760 -0.670093766 0.253567269
O 2.819759958 1.803597397 -0.859357490
C -0.232557312 2.418681499 -0.531919618
O -0.686708843 2.421181721 -2.954413659
H -4.320077023 -1.250205520 0.613766775
H -2.167038237 -3.777270352 0.903418893
H -2.400589847 -2.081965507 -1.982218071
H -0.595000717 0.284914310 2.979341736
H 3.598713136 -0.973293633 1.834213568
H 2.582280230 -2.159968733 -1.148294253
H 1.708731010 1.865537007 -2.809125675
H -0.473814055 4.190422573 0.517837455

