17

O 1.896805681 -2.036253731 2.265489944
C 2.775196588 -1.280038154 -0.160470346
C 0.638044918 -0.441019899 -1.844948308
C -1.410745748 1.407329538 -1.156107439
C -2.039063413 -1.327799810 -1.553865497
O -2.107463317 1.098936874 3.471334502
C -1.709982046 2.699563795 1.393599299
H 3.317803495 -2.495452700 3.287879342
H 3.734242366 -2.876874284 -1.067062353
H 4.149050195 0.261262517 0.034099711
H -0.702035239 -0.064617106 3.546529445
H 1.299731802 -0.264359098 -3.778934918
H -1.914234531 2.665399116 -2.696440796
H -3.078326932 -1.888131309 -3.223370309
H -2.483725230 -2.394570125 0.133270856
H -3.376070101 3.914157767 1.291767646
H -0.077850518 3.947003777 1.717659777

