11

C 4.195131676 -0.190408011 -2.010546615
C 2.077278665 0.150295361 -1.308721645
C 0.973962010 2.238569699 3.862242417
C -0.679205439 1.644425803 2.163882054
C -0.512795817 0.552896277 -0.459106335
C -2.138074083 -1.846752260 -0.592775017
O -1.503299865 -3.777743842 -1.555765825
H 6.084889284 -0.501774046 -2.626672240
H -2.530069100 2.102940522 2.989572883
H -1.439901311 1.890679850 -1.748927469
H -4.032085917 -1.616083350 0.277719159

