17

C 4.715985550 -0.530222739 1.234712695
C 2.251046541 -1.169828079 -0.108288696
C 0.016815274 -0.253493324 1.412736404
C -0.822999916 2.313169227 0.675923703
N -2.229541401 0.134494076 -0.338779442
C -4.779563798 -0.461976111 0.496993171
H 4.910931076 1.510797675 1.485575274
H 4.754353718 -1.393464580 3.106391897
H 6.353093918 -1.197405514 0.170535140
H 2.309236178 -0.337220474 -2.038943510
H 2.127731461 -3.219338938 -0.360167607
H -1.947007730 -0.106988413 -2.222101360
H 0.107429418 3.390024935 -0.825647743
H -1.896703428 3.482466406 1.978370116
H -6.160833749 0.739120094 -0.457132838
H -4.855757763 -0.168679618 2.528666130
H -5.174471034 -2.444732130 0.101883998

