17

C 4.771962545 -0.631728829 1.067546142
C 2.476401124 -0.821375299 -0.682392349
C 0.173907754 -0.922722521 1.011602633
C -0.921264465 1.639693230 1.372167669
N -2.413124401 0.642380989 -0.736630531
C -5.008626251 0.080827366 0.086150649
H 4.716393731 1.097315395 2.193825766
H 4.842498632 -2.231701414 2.365841941
H 6.513606499 -0.614602790 -0.034019190
H 2.456837678 0.792288862 -1.984888991
H 2.626419792 -2.546142638 -1.805245295
H -1.681573378 -1.479933232 -0.611192571
H 0.222673383 3.257763551 0.814220267
H -1.996944045 1.994072152 3.089660999
H -5.976971976 -0.979846882 -1.391024887
H -5.980783950 1.878024260 0.359549251
H -5.065304466 -0.992124565 1.855778688

