19

C -2.156599805 -3.009789872 -1.715299244
C -1.629691911 -0.221539434 -1.286463355
C -1.989252954 0.688996280 1.430937566
C -0.426346081 3.099192607 1.472403165
O 1.604112502 2.703088456 -0.256796395
C 1.110602550 0.535060967 -1.760067385
C 4.521587949 -1.164443191 2.373314863
H -4.128574653 -3.462223566 -1.313197594
H -1.774646150 -3.557710595 -3.668683571
H -0.970639494 -4.166626991 -0.482102960
H -2.838067058 0.911907826 -2.528626729
H -1.197343890 -0.698564266 2.740582720
H -3.964721433 1.011714165 1.921676159
H 0.367443979 3.522499026 3.329545573
H -1.534300312 4.735436463 0.849221566
H 1.514069150 0.976849001 -3.736795424
H 4.949103733 0.837128170 2.793618583
H 2.371172764 -1.027301533 -1.188798170
H 5.984728546 -1.642255075 0.949705448

