9

N -1.792273156 1.606813923 2.606325691
C -1.444032782 0.049578023 0.754981114
N 1.034121592 0.185388501 0.252657536
C 2.243918475 -1.144550290 -1.604425139
O 1.246269126 -2.624492554 -3.031266628
H -3.477913489 1.931257221 3.428957091
H -2.809649167 -1.129345988 -0.219206360
H 0.676886273 1.826513066 2.200162755
H 4.281730304 -0.726933969 -1.681051360

