11

C -3.005416725 -0.847258349 -0.044806975
N -0.450150300 -0.571417086 -0.530420310
C 0.315837807 1.820222924 0.231789158
N 2.860003414 1.673980931 0.724396085
C 3.419127794 -0.612012731 -0.094056942
N 1.469238176 -2.082947767 -0.901354594
H -4.084806083 -2.018014567 -1.336331092
H -3.451763440 -1.073114466 1.937249637
H -2.065020125 1.909875310 1.141586727
H -0.244909999 3.354449404 -1.025388299
H 5.315347679 -1.371771620 -0.098388799

