11

O 4.295088608 2.363904197 -2.359005479
C 3.450316722 0.396291688 -1.678214390
N 0.851294955 0.013404149 -1.194792344
C -0.371696392 -2.106828652 -0.315685023
H 0.003949282 -3.959716890 -1.114111885
C -2.793522944 -0.582903692 -0.375365541
H -3.706419815 -0.213530303 1.437233321
H -4.175983403 -1.316227751 -1.719584557
C -1.170252927 1.569872630 -1.279558711
H -1.095367484 3.562621823 -0.832304360
H 4.557855554 -1.330885033 -1.327841440

