14

C 5.258684865 0.009687473 0.488149215
N 2.580095197 -0.861528937 0.535291324
C 0.894038935 0.948819563 -0.722956133
C -1.462135413 0.299051257 -1.158040270
C -5.765440834 -0.161887338 -0.064590896
N -3.564385108 -0.382659827 -1.684463771
N 1.900703789 -2.814058409 1.479191250
H 6.351982740 -1.418157915 1.473487017
H 5.403369780 1.833819957 1.438352057
H 5.882649169 0.201980013 -1.466890966
H 1.634076850 2.766364064 -1.278923896
H -6.420335513 -2.063460704 0.375150414
H -5.364020883 0.851988938 1.686799944
H -7.255536994 0.799974264 -1.109675073

