13

O -1.939525624 -1.566206316 2.612903166
C -2.428735390 -1.208472109 0.025209646
C -0.961700050 0.970344885 -1.149462576
N 1.679119606 0.369413282 -1.746370877
C 3.687645707 0.379660057 -0.265586456
O 2.948249883 0.942007044 2.117828238
H -0.192622241 -1.175113907 2.934470208
H -4.448190665 -0.807456351 -0.145540829
H -2.043257302 -2.940952819 -1.053712742
H -1.009705348 2.600798053 0.112568472
H -1.862762341 1.519644522 -2.921022992
H 2.059871396 -0.072083074 -3.553488475
H 4.447433490 0.969882299 3.132547766

