15

C -1.616879398 3.330899260 -0.025577670
C -0.998565337 0.629417789 0.683184541
C -0.636904487 -1.305773710 -1.493745259
C 1.722873474 0.042815185 1.613124228
C 1.741755334 -2.203255046 -0.152943208
N 3.148997397 -4.114311775 -0.220349360
H -1.593951124 4.558886324 1.633105191
H -3.485865230 3.469199282 -0.891032815
H -0.238392484 4.067914237 -1.377076743
H -2.379926354 -0.086174799 2.039315144
H -0.192148429 -0.385820281 -3.290647507
H -2.115506199 -2.706625891 -1.809578852
H 2.583039220 -5.332945376 -1.600841916
H 2.009113031 -0.362265865 3.611538178
H 3.082045913 1.482754801 1.022333103

