15

C -1.007622039 2.986777468 -0.457093834
C -1.114428981 0.389569516 0.768661597
C -1.141614354 -1.750225276 -1.183138308
C 1.391325467 -0.300624095 2.080877553
C 2.418649695 -1.732560267 -0.133109663
N 4.079866036 -2.586914065 -1.452196701
H -0.765580153 4.473935538 0.952839729
H -2.742083786 3.371451799 -1.505227443
H 0.569658394 3.110717820 -1.787493018
H -2.706420119 0.301146944 2.078264761
H -1.896152006 -1.248616184 -3.038804500
H -2.016990241 -3.485334519 -0.497402580
H 1.681246531 -2.608381997 -2.215564060
H 1.122969901 -1.608009571 3.654704190
H 2.611767592 1.248621646 2.687558158

