16

C 3.436304876 0.281862554 1.304159714
C 1.388391289 0.057427379 -0.658551300
N -0.373302262 -2.145085647 -0.438732045
C -1.895897044 -0.919188676 1.638498885
C -1.942615590 1.185795320 -0.351668470
O -2.299783579 3.630432245 -0.345944584
C -2.205476362 -0.965308633 -2.276359611
H 4.545653706 -1.460419051 1.350367732
H 4.706701477 1.834352973 0.830402672
H 2.715991676 0.620918122 3.204729408
H 2.140652217 0.164837238 -2.577609715
H -0.902633938 -0.633365880 3.412629518
H -3.710372139 -1.844667117 1.946705695
H -0.040854159 2.708142717 -0.558302557
H -1.468586296 -0.704566717 -4.180855948
H -4.040286422 -1.900484732 -2.285959760

