15

N 2.007853868 -1.427351546 0.172466384
C 1.235637791 1.200810422 0.923559367
C 3.262206581 3.038588826 0.458693884
N 4.910042584 4.393928408 0.068494692
C -1.115713976 1.860066665 -0.397873199
C -3.151985054 -0.101861945 0.080279194
C -1.749832383 -2.381029103 -0.601354978
H 3.250857037 -2.296590376 1.378120155
H 2.784112637 -1.396624542 -1.584883991
H 0.966016694 1.074040942 2.982972296
H -0.937010910 2.645280298 -2.282239437
H -3.872802017 -0.122281078 2.016040256
H -4.715326470 0.225617898 -1.222253881
H -1.521771863 -2.782053705 -2.593164013
H -1.524058753 -3.988606778 0.647507721

