15

C -2.393599505 -2.043049469 1.027222524
N -0.606201275 -0.942080082 -0.822670215
C 1.982548470 -1.910767431 -0.601991721
C 3.459966250 0.079192129 0.007238029
C 2.103332489 2.381083943 0.139811973
C -0.427092617 1.938042000 -0.461525600
N -2.538387580 3.056973480 -0.825811091
H -4.170577482 -1.016747091 0.875988649
H -2.642811408 -4.046932683 0.630352221
H -1.577914435 -1.790777703 2.897353398
H 2.315049278 -3.909741571 -0.754685825
H 5.467624532 -0.094793425 0.352280306
H 2.877344373 4.218325362 0.546564391
H -2.361535652 4.946561107 -0.580633810
H -1.320223085 -1.183616730 -2.591231088

