11

O -0.927147258 4.444830657 -0.340561907
C -0.539229816 2.231768500 -0.183464798
C -2.406950930 0.054500968 -0.319199838
C -1.225206219 -2.264991056 0.738628123
C 1.542809201 -1.834635317 0.509867062
C 2.068960959 0.984314799 0.353020607
O 4.009716681 2.084518016 0.662920857
H -4.304216608 0.483412597 0.359834392
H -2.646683400 -0.450397476 -2.330664387
H 1.966610822 -2.665828216 -1.357447572
H 2.721185229 -2.874148052 1.842327334

