11

O -0.926795145 4.330557104 -0.885447824
C -0.541367701 2.176968332 -0.329548848
C -2.313004556 -0.067396194 -0.400319979
C -0.851687735 -2.451195995 0.232216746
C 1.645328733 -1.683540488 0.721226334
C 2.042524806 1.133573834 0.588039987
O 3.889207089 2.326125227 1.090441062
H -3.749776141 0.136224725 1.076403270
H -3.367681739 -0.183371030 -2.167913614
H 1.138994192 -2.753173379 -1.325664363
H 3.114596124 -2.948325869 1.398994996

