13

C 2.951213408 2.049609011 1.168367698
C 2.554065315 0.450623714 -0.901315571
C 0.792544693 -1.723418453 -0.052505776
C -1.627011183 -0.969722561 1.294346291
C -2.079404890 0.760320686 -1.002852653
N 0.201900134 -0.269275447 -2.307302157
H 1.158282948 2.904251427 1.789149382
H -2.014376579 2.791846284 -0.677250631
H 4.161381111 -0.303764706 -1.926109022
H 1.645143370 -3.584625114 -0.079653336
H -1.505549755 -0.148784128 3.173234458
H -2.934883018 -2.558668764 1.340748988
H -3.754746008 0.299353896 -2.100818076

