13

C -4.695209750 0.176690697 -0.297899488
O -2.295587688 -1.044981452 -0.320056848
C -0.287717095 0.484340434 -0.086987608
O -0.451186814 2.756112735 0.085550226
C 2.093356549 -0.916578813 -0.016810002
C 4.437090490 0.394224365 -0.184150636
O 6.072391750 -0.727632392 1.139251724
H -4.849569364 1.512804451 -1.858340684
H -6.086886101 -1.320772636 -0.501270604
H -4.979012032 1.186588362 1.475220142
H 2.135643026 -2.747815930 -0.955029109
H 4.040508691 -1.852234109 1.775424774
H 4.919394914 2.119619868 -1.201734064

