15

C -3.903874803 -1.524127614 0.620170320
C -1.804989596 -0.453590357 -1.007443478
C -0.220183291 1.553172100 0.157429890
N 0.610416082 -1.456469920 -0.608020760
C 3.143809438 1.032973659 -0.512503797
C 4.855009999 -0.767889700 0.662884895
N 6.312532401 -2.057595069 1.615637545
H -3.253236448 -1.763490208 2.560882162
H -4.466255994 -3.373877376 -0.096506575
H -5.564874033 -0.299022987 0.594394455
H -2.399401890 -0.066713946 -2.961805568
H -0.130480600 3.225744126 -1.031740216
H -0.447593122 1.875225935 2.162555239
H 3.501750457 1.203126735 -2.525430900
H 3.586271424 2.848315874 0.380706625

