15

C -2.729866102 2.130468540 1.252606719
N -1.131963391 -0.038028754 1.827261624
C 0.473852114 -0.857461358 -0.178481250
C 2.956393487 0.516605221 -0.385594345
O 4.256630942 0.472242011 1.935945896
C -0.113365634 -2.758752947 -1.651180005
N -0.545041366 -4.720738702 -2.798439765
H -4.072903699 1.769477579 -0.285399932
H -3.778560223 2.670257488 2.942705672
H -1.549919315 3.731599074 0.710772596
H -2.152831654 -1.486013161 2.530213305
H -1.415500733 -4.482587215 -4.496872146
H 2.625319215 2.479877975 -0.983645760
H 4.151980007 -0.373795632 -1.809044683
H 2.983981240 0.645619979 3.227553218

