15

C -2.716936067 -2.634080609 0.087376609
N -0.660777246 -1.163765082 0.131546122
C 1.807150290 -2.208841152 0.500682634
C 3.545836766 -0.411369227 0.461415599
C 2.288504087 2.082813956 0.038930286
C -0.423907314 1.333119502 -0.130024987
N -2.483936596 2.928858949 -0.533953474
H -4.539997453 -1.776444130 -0.187307329
H -2.472790972 -4.634675718 0.346592760
H 2.669522177 3.406133471 1.589018542
H 1.972710140 -4.224854574 0.755003904
H 5.550674593 -0.702794513 0.697100484
H 2.982132767 2.997848164 -1.688335725
H -3.436893941 2.525872718 -2.150401541
H -3.745781695 2.901909112 0.911197572

