15

C -1.936566312 -1.890579789 1.515855017
N -0.567819407 -1.396251737 -1.004830214
C 1.935881967 -2.332562050 -0.578940842
C 3.447018319 -0.474515086 0.165138272
C 1.788346211 1.767202424 0.410520570
C -0.357010121 1.160598184 -1.089485541
N -2.356260180 2.609068137 -1.612984294
H -3.841319615 -1.098647878 1.401334590
H -2.133684022 -3.934938745 1.735914267
H 0.385534289 0.807406066 2.222348876
H 2.263653319 -4.336659370 -0.752313274
H 5.394860627 -0.590679821 0.748507724
H 2.470891836 3.668082808 0.733244274
H -4.000003073 1.790271955 -2.091001043
H -2.327021959 4.468550140 -1.263347507

