15

C -2.546165901 -0.146088472 0.714966427
C -1.812490108 0.420726300 -1.919364570
O -0.107086433 2.185305369 -2.303907415
C 1.530219694 2.911431196 -0.620923905
C 2.936227199 -1.785440492 -0.323985475
O 1.573387030 -2.356703868 1.659974564
C -0.724098340 -1.722750548 2.240914604
H -2.957406702 1.635531089 1.754061137
H -4.342215920 -1.164775140 0.619114397
H -2.977325303 0.047082035 -3.547164355
H 1.221627343 2.508422401 1.361738932
H 2.828364637 4.339017635 -1.270477557
H 1.929958904 -1.542980580 -2.090926947
H 4.819251032 -2.560556487 -0.231955680
H -1.346286037 -2.633910042 3.961036940

