14

C -3.519720751 -1.487094160 -0.798553379
C -1.155264243 -0.002748229 -1.442095000
O -0.310864010 1.350740442 0.724124059
C 3.618034735 1.896056461 0.660270610
C 2.003562036 0.220098178 2.072818779
O 2.731987168 -2.040322122 1.544149357
H -4.986967684 -0.242918775 -0.057261801
H -3.089475182 -2.922545526 0.615093967
H -4.247844264 -2.423024241 -2.488457804
H 0.326177614 -1.301046900 -2.070015275
H -1.532981491 1.385150201 -2.923696255
H 4.714033330 3.467527970 1.416101609
H 3.873633402 1.375861271 -1.303134802
H 1.618758088 0.724446843 4.051636703

