9

O -4.212402753 2.660059430 -0.867542064
C -3.066592129 0.374249865 -1.254537925
C 2.910392224 -1.357888067 1.097593997
C 5.170501532 -1.295434829 0.989933937
C -1.181803632 -0.553550784 0.034800119
N 0.396262567 -1.567086569 1.418715346
H -3.567459125 3.430993800 0.642345065
H -3.821114096 -0.663711216 -2.844290058
H 7.174992274 -1.221489185 0.864001719

