18

C -5.341574035 0.382329824 -0.500739817
C -2.675406085 -0.716390714 -0.573037281
C -0.786276358 0.801591794 0.930879656
C 2.870171350 -1.581954405 0.932740242
C 4.913684785 -0.288364534 -0.052522368
C 0.507901218 2.739229525 -0.098611994
N 2.275255255 3.851725996 -0.939657037
H -6.653403392 -0.800890271 -1.565984500
H -5.375183004 2.276118520 -1.316255265
H -6.038392724 0.517069659 1.437431893
H -2.706123885 -2.638315258 0.188669727
H -2.025580406 -0.864021259 -2.527826884
H -1.135711757 0.958044601 2.948832788
H 2.668162405 -1.817318452 2.954344042
H 1.868016875 -2.950012600 -0.210938033
H 5.554639522 -0.754756104 -1.944236994
H 3.861041175 2.172997223 -0.718293706
H 6.356801692 0.406583476 1.227911419

