19

C 4.874644555 0.900553841 1.148227791
C 3.528326979 -1.213589336 -0.242135238
O 2.848662053 -0.908225676 -2.487436369
C -1.078281260 0.256068208 -3.044331212
C -2.287666145 -0.005959856 -0.792532239
C -4.563718033 -1.268831511 0.211556729
C -3.968225307 1.472367619 0.875344139
H 5.059705454 0.503023929 3.162917687
H 6.762325146 1.118547658 0.340993294
H 3.861314221 2.676293746 0.886295366
H 1.251642392 -1.311581594 1.386964905
H 3.997587380 -3.149146289 0.382601000
H -0.334358711 2.059760960 -3.646764921
H -1.092295999 -1.243461276 -4.429234804
H -0.236979650 -0.804133608 0.743356369
H -6.108296358 -1.629619005 -1.082513850
H -4.368308560 -2.653217469 1.707197554
H -5.118483041 2.937661520 0.026479447
H -3.392941557 1.857070410 2.802090830

