12

O 2.324922341 0.900081561 1.639806991
C 3.836620376 0.616315581 -0.355730134
O 3.236713514 0.801271996 -2.525790515
C -1.736208554 -1.030705534 0.833478598
C -2.931432000 -1.690740855 -1.259413059
C -0.302910701 1.388348865 1.111626839
H 5.760213624 0.196129232 0.303141267
H -1.756101474 -2.260895188 2.476868869
H -2.893292301 -0.502033278 -2.928485974
H -3.974802990 -3.447091489 -1.385298299
H -0.458739936 2.544815295 -0.585000419
H -0.960780660 2.460704643 2.742759854

