12

O 2.857085885 2.130618509 1.460723977
C 3.725629391 0.487912621 0.026708217
O 2.559430115 -1.444232507 -0.776376272
C -0.700005579 -1.185648318 0.278151339
C -2.713744735 -1.261701253 -1.407557421
C -1.032020236 1.329487959 1.067470610
H 5.687042314 0.695502078 -0.659873806
H -0.569562150 -2.639708572 1.707718551
H -2.929954518 0.161926002 -2.854549211
H -3.978650529 -2.868723612 -1.466436524
H -1.245634537 2.812518244 -0.314409118
H -1.515416109 1.758247749 3.006397436

