14

C -2.085114716 2.154053173 -0.222354889
C -1.427363621 -0.270715362 1.140441231
C -0.971430306 -2.602296304 -0.486532686
C 1.229495010 -0.976840875 1.687520157
C 3.116668303 0.216409395 0.190848222
C 4.849289590 1.252931450 -0.863574433
H -0.830729047 2.475211296 -1.825868632
H -1.894479031 3.760376447 1.056430338
H -4.032916981 2.111133184 -0.900544525
H -2.706385140 -0.658625320 2.702577569
H -0.729995400 -2.228104018 -2.485927744
H -2.118751255 -4.234326373 -0.002823345
H 0.981619879 -3.350828840 0.385306332
H 6.409495950 2.150489149 -1.759481986

