11

N 4.239274186 0.114604009 1.266713373
C 1.968193827 -0.029003649 0.570875472
C 0.029445845 1.913400047 0.056817885
C -2.085684374 0.768787283 -0.633737382
C -1.660606753 -2.022628598 -0.612973260
O 0.888525319 -2.323274405 0.155495094
H -1.914915985 -2.878269923 -2.478931278
H 4.747895768 1.947695552 1.492636954
H 0.373256096 3.916527937 0.239059766
H -3.863033475 1.635407425 -1.146696300
H -2.896845893 -3.005872583 0.722382903

