11

N 3.339941164 -0.498180920 0.004098476
C 1.403345221 0.144954107 1.448096884
C -0.394061206 2.091377968 0.812405487
C -2.182145860 0.714427496 -0.421023384
C -1.450990508 -1.903289766 -0.261806418
O 0.121021500 -2.048146325 1.872184534
H 1.430849750 -1.586805540 -1.495306626
H 4.143560200 1.034686054 -0.829833354
H -0.043692131 4.095571002 0.735031369
H -3.715718855 1.425225812 -1.566162777
H -2.757023110 -3.465532117 -0.486639777

