9

C -2.484672588 0.741030229 0.291764246
C -0.384185044 -0.549154431 -0.738108051
O -1.149949936 -2.231673673 -2.294816131
C 2.250078982 -0.139429266 -0.328379202
C 4.447362871 0.260795773 0.038920856
H -3.132413671 -0.956355243 -1.846097205
H -2.344523506 2.666520101 0.973625847
H -3.611102520 -0.496508418 1.492471036
H 6.405285791 0.603137897 0.359005313

