12

C -2.243750270 0.636431167 -0.469637136
C -0.034384115 2.215626818 0.356665851
C 2.231432941 0.537840225 0.686257047
C 2.160205025 -1.923883567 0.247424374
O 0.076465500 -3.227361184 -0.536685356
C -2.070275717 -1.830491299 -0.846534074
H -0.469138853 3.207476390 2.122975436
H -4.061635319 1.523251216 -0.776567172
H 0.356376741 3.702975316 -1.032117935
H 4.004760213 1.344436014 1.310374759
H 3.762922475 -3.171884702 0.469863337
H -3.630374930 -3.008363582 -1.442351625

