15

C -2.649473316 -0.961067785 1.752445666
C -0.824391623 -0.444311556 -0.382058573
O -0.384441177 2.175563623 -0.637139021
C 2.211430813 2.533434438 -1.211818152
C 3.276354091 -0.155348035 -1.281019961
O 1.519134750 -1.529593118 0.185673075
C -4.067520796 -3.291142559 1.648085617
H -1.919815875 -0.238551543 3.552274344
H -4.419515697 0.141976201 1.350325666
H -1.568894735 -1.218675288 -2.164085388
H 3.075329467 3.674627894 0.276463209
H 2.412637588 3.511647708 -3.018572658
H 3.338879762 -0.897478369 -3.215029531
H 5.136230990 -0.335417732 -0.421052108
H -4.943791203 -3.538052492 3.528406782

