15

C -3.352777753 -0.414366861 1.315810405
C -1.592963912 0.754578621 -0.462311689
O -0.212268155 2.816565281 -0.268617614
C 2.282411931 2.176325126 -1.192895607
C 2.682751205 -0.672572576 -0.477064913
O 0.874542933 -1.145161295 1.380043216
C -1.591235965 -2.735701595 0.969836984
H -3.416699307 0.542141544 3.144013944
H -5.227523451 -0.734959428 0.522595350
H -1.578302793 -0.136047960 -2.316408841
H 3.563422122 3.447049008 -0.211417438
H 2.390684564 2.496106187 -3.229002676
H 2.403182646 -1.912378612 -2.110711359
H 4.574081725 -0.968547132 0.291656777
H -1.654010418 -3.947487811 2.636047190

