10

N 3.125786213 -0.393602948 -0.144641452
C 0.939181620 -0.878619185 -1.209648577
C -1.136979990 0.875825792 -1.525082020
C -2.250309491 0.384777624 0.737422912
N -1.146312724 -1.632440763 2.010416261
O 0.014115649 -2.988312001 -0.115983018
H 1.605597279 -0.646791874 1.963089015
H 3.718845992 1.398391417 -0.492733142
H -1.319116651 2.483600848 -2.755041581
H -3.657059639 1.496614128 1.717213348

