11

C -2.562490602 1.149122217 0.165964309
C -0.756896464 -0.789311069 -0.894426650
O 1.076628903 -0.091674904 -2.263717627
C 4.057878468 -0.287827852 -0.327442786
O 5.936256353 0.254478476 -1.199158745
H -3.774471177 1.820881909 -1.364857812
H -3.760395287 0.350927319 1.640557893
H -1.525331067 2.765719913 0.910460390
H -1.556490440 -2.675896979 -1.240891589
H 0.409700050 -1.665993266 1.554899499
H 2.053829034 -1.328236299 1.501266955

