19

C -4.565517713 -1.146524619 -1.389439426
C -2.662334830 0.641099717 -0.250490265
C -1.449067315 0.120205063 1.961602425
C 2.582158286 -1.298349222 1.348921864
C 3.264254250 -1.357652966 -1.086576705
C 4.206466273 0.781538229 0.409880481
O 3.209009827 3.205190842 -0.086755739
H -4.076126722 -3.105925021 -0.968475549
H -6.445963355 -0.788936809 -0.610679208
H -4.694516844 -0.945846343 -3.436818428
H -2.738101075 2.596640448 -0.868594888
H -0.495277016 0.255799886 -2.435331914
H -1.854747275 -1.631227030 2.942071612
H -0.644383815 1.625214469 3.081878426
H 2.457114258 -2.538749293 2.953451411
H 0.962998027 -0.256998614 -2.687218933
H 3.916868730 -2.657148496 -2.512208524
H 6.198534522 0.869996611 0.940082263
H 3.304564962 4.174493996 1.441259023

