11

C -2.464243136 0.315721344 0.578824416
N -0.422598036 -1.537684396 -1.612228819
C 0.670095070 0.832051950 -1.220072986
C 2.759805449 0.419114949 0.318528607
N 2.832750446 -2.036884238 0.842305093
N 0.912373247 -3.176911922 -0.264427336
H -4.125670749 -0.579755616 -0.207633242
H -1.876688621 -0.478163354 2.371380124
H -2.714874791 2.351948713 0.667918767
H 0.200020084 2.412544198 -2.415882267
H 4.146419753 1.728900284 1.030777533

