15

C 3.949116037 -1.784861575 -2.917789633
C 2.045635163 -0.330767230 -1.462053059
C 1.846786747 1.253093872 0.336901224
C -0.048425536 2.638343075 1.426791582
C -2.718972076 0.876265758 -0.120950484
C -4.045440083 -0.837212055 1.651508251
O -5.008267978 1.518811153 0.701959197
H 5.858575343 -1.340760893 -2.293857984
H 3.637913577 -3.811813809 -2.696987891
H 3.796274516 -1.352230095 -4.928294976
H -0.249549824 4.593636933 0.831708378
H -0.486659714 2.335904787 3.413519427
H -0.152862762 -0.441823580 -1.964076983
H -4.973499058 -2.507716626 0.914119977
H -3.614148060 -0.832702941 3.654999781

