10

C -2.007367169 -0.708965319 3.503873772
C -2.491715219 -0.143369175 1.136776769
C -2.602941589 -0.950487681 -1.501723418
H -0.845427034 -1.222363882 -2.517746480
H -4.124412116 -2.193246962 -2.081177453
C -3.293770317 1.743594756 -0.712769054
H -1.989191330 3.242964861 -1.207690537
H -5.270258323 2.277858466 -0.775556792
H -2.225762572 0.682447038 4.990994275
H -1.381859054 -2.583838215 4.041383786

