14

C -3.924107193 0.370495565 -0.260497877
N -2.022603370 -0.548157298 1.480619562
C 0.521989485 -0.371831016 1.011284819
O 0.941106343 0.168004117 -1.429608219
N 2.339639887 -0.701544024 2.547171878
C 3.513700234 0.284567527 -2.187913002
H -3.831199319 2.416096562 -0.552748973
H -5.777800039 -0.106150527 0.498109338
H -3.725093597 -0.553121041 -2.087568904
H -2.479289287 -0.525610163 3.320669341
H 1.714866875 -1.110619274 4.308770508
H 4.450033508 -1.521670914 -1.864124436
H 3.475816460 0.730567647 -4.194677027
H 4.517498771 1.745127948 -1.137991353

