14

C -4.568191014 0.509836543 0.260012576
N -2.110093248 -0.386752747 1.053610810
C -0.028753355 0.186409860 -0.396337136
O -0.182634792 1.152306614 -2.473166990
N 2.241514668 -0.429970500 0.712115473
C 4.530372096 -0.273234329 -0.775141506
H -4.800651951 2.547938143 0.524449663
H -6.022587848 -0.480580144 1.330103027
H -4.820243082 0.097807235 -1.738150569
H -1.823752932 -0.524749978 2.926234479
H 2.190651461 -1.779992204 2.046924655
H 6.158781204 -0.344472922 0.483622395
H 4.685563813 -1.792073601 -2.170339229
H 4.550024964 1.517528029 -1.783937650

