14

C -4.359195658 0.470015705 0.008022152
N -2.189893775 -0.453821357 1.388635461
C 0.193631090 -0.276172739 0.421958156
O 0.506476516 0.343605405 -1.870242500
N 2.270563538 -0.729943830 1.660856688
C 4.275301040 0.060568992 -1.655884724
H -4.509354184 2.533285641 0.033122080
H -6.070813716 -0.332905171 0.826901766
H -4.219643125 -0.138591531 -1.951335146
H -2.332068869 -0.538561873 3.276519234
H 2.214732713 -1.357843129 3.465216419
H 5.623856959 -1.184914934 -0.769493643
H 3.947065986 -0.393326537 -3.621644546
H 4.598991604 2.039941229 -1.288842123

