14

C 4.022863865 0.133568110 0.502004158
O 1.532338285 0.761316326 1.253372871
C -0.242156762 0.458773479 -0.560031430
C -2.752476958 -2.633233445 -0.745276161
O -4.305527209 -0.522064508 -1.109346657
C -2.891102902 1.347231580 0.144328683
H 4.168422760 -1.884749965 0.074862086
H 4.590276414 1.228897365 -1.158781061
H 5.259630030 0.587090248 2.078723001
H 0.370115768 1.091826987 -2.443470889
H -2.490900955 -2.876638806 1.325115945
H -0.567355630 -1.886329323 -1.393550959
H -3.123090613 1.227807560 2.202495905
H -3.384416209 3.244037148 -0.512193013

