18

C -1.584685192 -2.102448607 1.034194800
C 0.402746312 -0.857450398 -0.669136941
C -0.757373205 0.710233230 -2.817236285
C -2.137119601 3.049340158 -1.863291143
C 2.671595679 0.337550893 0.410803650
C 3.397331070 -0.506208893 2.962454765
H -3.104619428 -2.915217735 -0.099383928
H -2.435360128 -0.729790441 2.319237440
H -0.785026228 -3.617218921 2.179335403
H 1.511819148 -2.378105149 -1.618425307
H -2.054042857 -0.471463840 -3.913658425
H -2.872604675 4.167935626 -3.431613593
H -0.851843845 4.249870712 -0.779288642
H -3.733478557 2.561307350 -0.648727162
H 0.772584631 1.283612212 -4.075963053
H 1.887097572 -1.063064487 4.268249942
H 4.702462197 0.802361102 3.872881764
H 4.525566012 -2.214430621 2.568542772

