11

C 1.227878576 -0.868871525 -0.495497660
H 2.939815185 -0.352700865 0.528458018
H 1.606039116 -0.734260021 -2.519063033
C -0.160348345 -3.311767918 0.336210623
H 0.628520282 -4.151518196 2.040558905
H -0.311540910 -4.767896515 -1.107711118
C -2.617900320 -1.793034262 0.828264164
H -4.118083461 -2.113177867 -0.551139267
H -3.433361854 -1.883929257 2.718289054
C -1.128326575 0.613924189 0.265944200
O -1.598526718 2.811387678 0.432990188

