14

O 2.809648430 2.943266467 0.277755423
C 1.959703609 -0.672986521 -1.023631401
C 0.326391928 -2.103234431 0.740382261
C -2.382493490 -1.239161204 0.557529451
C -2.197736233 1.671845691 0.079250767
O -4.051369930 2.949093154 -0.078931404
H 3.410304153 4.077082281 -1.020531570
H 3.974699263 -0.998020113 -0.918337997
H 1.237240373 -0.295301171 -2.902642117
H 1.078193067 -1.965504936 2.656441417
H 0.533279465 -4.100755239 0.187173914
H -3.343173371 -2.045881451 -1.085173035
H -3.523828694 -1.660553387 2.223021033
H 0.855389803 2.897449547 0.190609607

