12

C -2.888869567 -0.167630405 -0.183710198
C -0.089199382 0.030906301 0.178388427
C 1.059832167 2.530434025 -0.018000000
O 3.194094861 3.096737437 -0.617609514
C 3.426346680 -2.216044996 -0.630557823
C 1.298946583 -2.149504507 0.762229820
H -3.817544630 1.630755430 0.212983869
H -3.694744255 -1.621347693 1.041732181
H -3.351282167 -0.679004599 -2.132387217
H -0.275494895 4.031614412 0.577517859
H 4.691606930 -0.587851713 -0.770180181
H 0.371206178 -3.790625501 1.586229533

