11

C -1.986365585 -1.256331653 1.166991298
C 0.812376783 -0.928086225 0.915040009
C 1.972300448 0.952213927 -0.768120436
O 1.939002566 -1.638818910 -1.410308994
C 0.404257110 2.614351528 -2.282987958
N -0.821858464 3.968386425 -3.449362770
H -2.684353069 -0.172372540 2.776627129
H -2.965870161 -0.627160039 -0.531568035
H -2.430032007 -3.243821360 1.487015377
H 1.936128312 -1.451057612 2.556103423
H 3.814050791 1.734595370 -0.314388822

