10

O -0.983140807 2.652259226 0.852826503
C -2.138938708 0.265708022 0.514211562
C -0.467107606 -1.209448738 -1.290756529
C 1.983006086 -2.178979416 -0.520762033
H 1.930105358 -2.335387455 1.570943103
H -0.496932624 -0.431345295 -3.203936895
H -1.207453509 -3.183710457 -1.511776100
H -4.047882478 0.471735318 -0.271057780
H -2.281692229 -0.755661113 2.315330942
H -2.022034865 3.667647000 1.933105147

