11

C -3.388493935 0.092106669 0.149386819
C -0.329720548 -0.580302975 0.436457250
C 1.564720462 0.736169514 -0.619778919
N 4.070691869 -0.233148192 -0.108327378
N 4.615954560 -2.058156053 1.136578423
N -1.375734716 -2.243030587 1.681548301
H -3.619667912 -0.043001927 -1.886983074
H -3.412730013 1.998917089 0.914014455
H -4.842534329 -1.023090675 1.076743987
H 1.341107639 2.394631711 -1.775894786
H 5.426201187 0.887866863 -0.985509219

