14

C 4.070020979 0.028795798 0.351171680
N 2.076909336 0.544446518 -1.437873975
C -0.391372372 0.361304920 -0.685415363
N -2.230901569 1.403825703 -2.087904084
N -4.610272853 0.733576696 -0.868463344
C -3.982973088 -0.643524802 1.151580751
C -1.395023094 -0.835985547 1.441889549
H 3.986892890 -1.942636547 0.956493344
H 5.887504083 0.317106003 -0.568751873
H 3.981565223 1.231066940 2.038034098
H 2.393641872 1.949154440 -2.677258149
H -3.904437885 0.015981716 -2.947701749
H -5.456917457 -1.409620000 2.340317316
H -0.385499859 -1.733857640 2.966223786

