14

C 3.213957659 0.197462680 -0.296949239
C 0.478444092 -0.079433012 0.450464429
O -0.018213955 -0.871208587 2.848648900
C -1.313724846 -1.583450237 -1.268147978
O -3.601443544 -0.836017181 0.042720245
C -1.219172702 2.208905837 0.524578713
H 3.430599169 0.882961833 -2.233825599
H 4.122945764 -1.647615188 -0.133872054
H 4.171512386 1.485855407 0.994350265
H -3.029089853 -1.245093452 1.802087732
H -1.056653326 -3.629332141 -1.213253173
H -1.428637089 -0.902493305 -3.210447398
H -1.223289924 3.257833415 2.285110952
H -2.327310256 2.961821499 -1.026516654

