17

C 3.091026723 0.266009925 1.319926852
C 2.076561665 -2.396767593 0.906537224
C -2.168525168 1.567196759 -1.302021772
C -1.893384710 -1.137419540 -1.588064608
C -0.794134500 -2.574155901 0.679742953
C -2.504933324 3.848303419 -0.971308381
C -2.850941705 6.279104412 -0.341774563
H 2.733704400 1.493685563 -0.300408250
H 5.131071641 0.231572123 1.619628949
H 2.220113897 1.153541380 2.967280937
H 2.935815258 -3.208753334 -0.793289207
H 2.669625091 -3.604558758 2.475078599
H -3.833175557 -1.785633811 -1.942561412
H -0.852920422 -1.585754078 -3.321687185
H -1.322398576 -4.562464011 0.489016335
H -1.687637377 -1.873077713 2.405570731
H -2.972156657 7.511396009 -2.005480939

