17

C 3.443993453 0.976488725 0.956868436
C 1.806107123 -1.372285059 0.704445888
C -0.554123711 0.141117793 -1.819725075
C -2.665754875 -1.681411390 -2.023859962
C -1.609156427 -2.191101518 0.536244408
C -1.336164267 2.528339680 -0.865111990
C -1.971239442 4.637176884 -0.280770462
H 3.901112269 1.781992649 -0.878695285
H 5.182970758 0.426548130 1.930083947
H 2.523618520 2.428107189 2.090497639
H 2.669966206 -2.746638064 -0.552114857
H 1.766452222 -2.185918944 2.611411398
H -4.556339087 -0.886886397 -2.005580566
H -2.429440466 -3.193816788 -3.392764150
H -1.114787065 -4.147636869 0.858938293
H -2.575008791 -1.285575165 2.094855744
H -2.488743020 6.519492807 0.199289686

