8

C 4.186450199 1.094566807 0.723107783
C 2.974497366 -1.474855046 0.265634682
H 4.400333238 -2.951684403 0.058844541
H 1.740636617 -2.013024613 1.828960658
H 1.833810055 -1.470631924 -1.453573197
H 5.422470263 1.631295419 -0.839046147
H 2.761124931 2.572293292 0.927068097
H 5.324979613 1.090957109 2.443745315

