13

O -3.960723528 -0.452881445 1.973683274
C -2.317594777 1.105711504 1.796524095
C 1.530272947 -2.013545799 -1.850996641
O -1.461019341 -0.738221322 -2.274744916
C -0.672629533 1.206383848 -0.518159218
C 2.006525958 0.198157777 -0.087134497
O 2.457505564 -0.584184378 2.428356104
H -2.678536340 -1.798576432 -1.387284344
H -1.920454848 2.493278004 3.293392769
H 2.227521416 -1.619657427 -3.757764562
H -0.805611752 3.038260580 -1.455415717
H 3.483789914 1.547512200 -0.596912383
H 2.277726450 -2.399284349 2.374646875

