16

C -4.422577809 -0.398585777 0.562689518
C -1.857817230 -0.442093282 -0.737183030
C -0.011637160 1.481653072 0.395032393
C 2.558066092 1.414618080 -0.788697947
C 4.309472352 -0.427316399 -0.218822367
C 5.152088891 -2.469984540 0.862789044
H -4.241419384 -0.830923500 2.573411934
H -5.700781832 -1.788680692 -0.264874917
H -5.317924075 1.455117726 0.398894181
H -1.015567505 -2.323238708 -0.584260440
H -2.082208544 -0.059094438 -2.757088419
H -0.793215583 3.385466008 0.193445575
H 0.204357496 1.091211050 2.416972129
H 4.098221702 -0.626345963 -2.418715042
H 2.977427632 2.730673676 -2.304075241
H 6.198662834 -2.363381272 2.632175973

