17

O 2.022950909 -2.496173461 1.715514560
C 4.038653415 -1.826648446 0.636827499
C 4.312147770 0.118336086 -1.072245551
C 0.039038491 1.540293409 1.159691097
C -1.738040624 1.386837386 -0.853031387
C -2.753427453 -1.212157339 -1.612923124
C -4.415937481 0.460150409 -0.163636828
H 5.749570970 -2.923906695 1.109738813
H 6.175446339 0.690853995 -1.696956939
H 2.742513415 0.602452777 -2.288855708
H 1.341860978 3.106030732 1.251507390
H -0.280739017 0.496561236 2.874648074
H -1.574316246 2.762534213 -2.356545056
H -3.102343159 -1.439484986 -3.614243340
H -1.816360512 -2.765583853 -0.666541629
H -5.941595623 1.432097045 -1.116376401
H -4.745211601 0.060276934 1.812653361

