10

O -0.803164235 3.022987077 -0.361429963
C -0.132989684 0.681057711 -0.195829805
C -2.302453195 -0.948266591 0.220065297
O -4.409775500 0.208381441 0.117335911
C 2.440758754 -0.060189875 -0.360275435
C 4.582847976 -0.752031591 -0.575963011
H -2.738717371 2.777586562 -0.334251374
H -1.089247965 -0.668475348 2.258229238
H -2.075893892 -2.984659406 -0.078359686
H 6.494623803 -1.354575509 -0.766637114

