12

C -3.621449753 -2.329901524 0.620562891
C -1.417947645 -1.215703921 0.998276644
O 0.529720223 -1.411018530 -0.665254517
C 2.525987746 0.304824162 -0.307315936
C 1.920793751 2.917584031 -1.318452922
O 3.300097480 4.690312279 -1.044418502
H -5.083815222 -2.171637074 2.035098730
H 0.105551201 3.064204139 -2.359358499
H -3.991374565 -3.416654823 -1.071386141
H -1.017020554 -0.116257066 2.690317460
H 4.152343175 -0.425939204 -1.345676808
H 3.070362076 0.461544309 1.685243887

