12

C -2.532140108 -0.761490389 -0.228922632
C -0.612293431 -0.875415967 1.606475907
O 1.514948818 -2.266973058 0.817266279
C 2.618560251 -0.183307988 -0.460317461
C 0.334346333 1.652206958 -0.269773239
O 0.161806892 3.900675648 0.237329211
H -4.143308470 0.449524611 0.127255253
H -0.992729674 0.925303754 -2.085514866
H -2.718309935 -2.218339010 -1.661288453
H -0.856745417 -0.491878778 3.599355869
H 3.267072494 -0.646190922 -2.362713594
H 4.146375911 0.651884969 0.647768050

