14

C -2.813445495 -0.048815783 2.700005481
C -0.909102698 0.250690312 1.113697317
C 1.458315502 -1.296883720 0.912311283
H 2.278002388 -1.818571209 2.724708831
H 1.144066085 -3.037466782 -0.156254745
C 3.228068527 0.375467775 -0.565974184
N 5.544299753 -0.011322030 -0.897197480
H 6.326622691 1.374274279 -1.975125343
O 1.940913098 2.390436179 -1.512992724
C -0.670060828 2.309817949 -0.840348339
H -1.223751300 4.162754867 -0.128056289
H -1.776387967 1.890888117 -2.537144084
H -2.842469326 -1.581922771 4.055849526
H -4.419901995 1.221858003 2.695371892

