15

C 4.472731613 0.652607525 -0.032839320
C 1.822784825 -0.215586929 0.402097777
C 1.056224113 -2.603976837 0.193145619
C -3.695789860 0.853425735 -0.891758999
O -5.947170352 0.106805544 -0.183414588
C -2.225537751 1.307371228 1.484948187
O 0.345602732 1.780065053 1.042558501
H 4.514078121 2.036139308 -1.562358834
H 5.694956846 -0.926370335 -0.522666574
H 5.206275503 1.572175677 1.661883282
H -0.871485791 -3.209683325 0.476991743
H 2.414746674 -4.037213916 -0.321739762
H -6.971656553 -0.119062780 -1.669760133
H -2.996495951 3.056287377 2.286416053
H -2.495300899 -0.195724642 2.893220019

