15

C 3.448738499 -0.230696442 1.591213326
C 1.090153578 0.261362313 0.147773314
C -0.243703881 -1.538691374 -1.597302799
C -1.648179177 -0.308291243 0.548674025
O -2.812182912 -1.609192370 2.479171444
C -2.095512500 2.452623400 -0.067224607
O 0.557512368 2.796499527 -0.613470938
H 5.102480652 0.086054329 0.398678865
H 3.483882246 -2.183735365 2.247190101
H 3.567000980 1.017687060 3.226938679
H -0.608653799 -1.016630061 -3.546385901
H 0.201049361 -3.510848845 -1.265764032
H -4.091252600 -2.682871391 1.774251915
H -3.304196636 2.917244390 -1.677908424
H -2.647136198 3.549486054 1.592882899

