18

C -4.565780215 -0.249398079 -0.981909915
C -2.572621292 1.557162654 0.037366707
C -1.160387763 0.533216840 2.333490926
N 0.218769077 -1.804142450 1.824352731
C 2.479218271 -2.078882853 0.772462649
O 3.389372639 0.201505616 0.197407688
C 5.830732288 0.225758909 -0.913009782
H -5.554650804 0.570564291 -2.594450577
H -3.715159042 -2.020038974 -1.613627708
H -5.979289177 -0.696693645 0.457779464
H -1.196328218 1.999370472 -1.436027637
H -3.454981776 3.345763713 0.583117666
H 0.182443098 1.937301586 3.017985747
H -2.490177114 0.140689902 3.864491059
H -0.621058472 -3.436336151 2.302292134
H 5.698051178 1.089114607 -2.780685864
H 6.543342738 -1.700097645 -1.066098593
H 7.079650753 1.358234926 0.273112215

