18

C -3.352111719 -0.721826360 -0.244948757
C -0.802440962 0.256126846 -1.081002863
C 0.983766382 1.638953572 0.785830515
C 0.556816873 1.119004178 3.575338131
N 3.108971713 0.237139634 -0.363915955
C 1.392916994 -1.621081789 -1.458218880
O 2.021350255 -2.440041131 -3.880621137
H -3.213328437 -1.882485185 1.455197775
H -4.661524021 0.823169141 0.153625323
H -4.190610941 -1.885778695 -1.728253204
H 2.639770669 -0.985211606 -4.777546950
H -0.996922787 1.383768263 -2.800022109
H 1.135779258 3.678715806 0.488324619
H -1.181574635 2.010924201 4.241238122
H 0.426674629 -0.903466533 3.969582432
H 2.117575392 1.882996507 4.690422979
H 4.459363388 -0.415434859 0.821406177
H 1.152720691 -3.352062718 -0.344562060

