18

C -3.261958611 -1.091442466 0.079402304
C -1.307171049 0.562861937 -1.202037383
C 0.922619020 1.306624673 0.514770240
C 0.453307219 1.808204927 3.317621439
N 2.583169120 -0.877849311 0.196095463
C 2.423706867 -1.962345163 -2.060632105
O 2.640740212 -0.876366027 -4.314288338
H -2.428245970 -2.813399253 0.879653603
H -4.302251766 -0.166860644 1.627993897
H -4.675407347 -1.708827386 -1.292128092
H 1.327227506 0.415385424 -4.274240809
H -2.231987292 2.247970369 -1.988294296
H 1.856094234 2.974799099 -0.279974887
H -0.895365220 3.354579739 3.508686678
H -0.364139850 0.155961308 4.248390546
H 2.179453284 2.344909974 4.317801112
H 3.023611915 -1.990262937 1.676894586
H 3.023270101 -3.931719483 -2.115024716

