17

O 3.326584467 -1.532149124 2.150601248
C 2.454577150 -1.235511425 -0.196347382
C -0.085837672 -2.523283793 -0.811008810
C -2.284523568 -1.292352743 0.548687649
C -2.515695069 1.493200394 -0.278907910
C -0.140071886 2.840537421 0.273392064
C 2.227052253 1.722123423 -0.057698006
H 3.163954107 1.952424894 1.892794813
H 3.813266630 -1.755051032 -1.700579790
H 0.098446775 -4.504838135 -0.273526726
H -0.408990836 -2.461274528 -2.858689922
H -1.986022316 -1.395440988 2.589666451
H -4.061722625 -2.248281380 0.124081704
H -2.817517628 1.497860100 -2.336821002
H -4.130265089 2.433993100 0.586570479
H -0.236825561 4.608707328 1.314960292
H 3.680688775 2.583632008 -1.233399770

