11

C -4.420355529 0.396173561 0.090443143
O -2.686286485 -1.359966936 -0.968646040
C -0.217159352 -0.831951397 -0.828644622
O 0.238286357 1.680512826 -0.662230748
H 2.022946412 1.934122349 -0.469069727
C 1.538457729 -2.631915928 -0.916166475
H 3.524488908 -2.161152685 -0.972059736
H 0.975929952 -4.588627628 -0.994763000
H -4.433805220 2.170163598 -0.956987829
H -6.262921100 -0.504151038 -0.044201563
H -3.979823349 0.774303129 2.071511202

