15

C -3.152826096 1.903210681 -1.375903487
C -0.658552509 1.222065306 -0.133292739
O -0.968085755 1.595465021 2.483745280
C 0.074517022 -1.493068095 -0.789705663
O 2.765504296 -1.946644713 -0.898191041
C 4.067247863 -1.978391186 1.230964971
O 3.272577096 -1.522468926 3.308877279
H -4.623047685 0.565112280 -0.820065832
H -2.989646148 1.904229149 -3.431688861
H -3.735045896 3.778522579 -0.757632248
H 0.832668794 2.467479368 -0.875819084
H 0.409531052 0.766034575 3.345783555
H -0.551986601 -1.972794743 -2.688886541
H -0.780391316 -2.796812617 0.563922395
H 6.037535884 -2.491938679 0.837892035

