15

C -3.138634990 1.679248429 -0.188868224
C -0.411260284 2.052554471 -0.889243226
O 1.201143845 2.739411789 0.701723548
C 0.893692850 -1.920157688 -1.788025411
O 2.936292244 -1.855398890 -0.517261183
C 2.482978354 -1.606150194 2.285565922
O 0.429746832 -2.364063785 3.073809560
H -3.281051327 0.831777939 1.678725731
H -4.125456322 0.502930785 -1.564092903
H -4.065032537 3.528073567 -0.165967181
H 0.033060570 2.417381179 -2.884547858
H 2.416049017 0.750466728 1.864535168
H 1.106477240 -1.756202839 -3.816987558
H -0.762869454 -2.765327228 -0.912941185
H 4.324916706 -2.095350834 3.120311279

