14

C -4.586102613 -0.453402821 -0.322399862
C -2.048408393 0.450165266 -1.326018951
C 0.133092617 0.180394787 0.342330048
C 2.231580434 1.856985901 -0.339942681
C 4.798151390 0.822972723 0.371410665
O 6.613307126 0.955604455 -0.974166157
H 4.864757111 -0.110427280 2.242678474
H 1.845066945 3.383667405 1.044157134
H 2.258311007 2.717601194 -2.230260196
H -1.348904366 -0.905321753 -2.775827870
H -2.184684707 2.264799797 -2.336616892
H -5.986194047 -0.589089559 -1.830357789
H -4.387914544 -2.297481949 0.573279468
H -5.306153236 0.860850998 1.093751031

