17

C -4.546126175 -0.805954983 -0.718943356
C -2.193736382 0.765240078 -1.238349378
C -0.002111504 0.217808737 0.450213341
O 0.717676446 -3.107314858 -0.363260333
C 2.338697518 1.622001481 -0.317892582
C 4.771961146 0.784214874 0.894693064
O 5.381816585 -1.399432278 1.134012874
H -6.119208090 -0.201276336 -1.908263979
H -4.189534213 -2.798263416 -1.109490900
H -5.116167352 -0.630427507 1.255318476
H -1.667871918 0.640480491 -3.246226868
H -2.611445224 2.767872708 -0.877922500
H 0.106233713 -2.327132376 1.386489733
H 2.542455802 -3.167478239 -0.108683195
H 1.998055279 3.603891703 0.168545618
H 2.680199110 1.583949786 -2.378470452
H 6.086786758 2.285199240 1.516893648

