19

C -3.437273814 -2.044261143 -0.786713640
C -1.363172421 -0.109737983 -0.261244394
C -2.411592343 2.228911309 1.063206915
C 0.682998687 -1.267590754 1.361639646
O 2.180393611 -3.118634355 0.031023974
C 3.315193727 -0.326791680 1.540533650
C 4.222342013 1.580452470 -0.311779753
H -4.916646704 -1.230366854 -1.972600706
H -2.679506318 -3.702215571 -1.749137077
H -4.318102429 -2.675680586 0.973341462
H -0.537277596 0.449697332 -2.068391094
H -3.206979902 1.732767759 2.905122950
H -3.914918514 3.092585709 -0.053347441
H -0.949797194 3.652097540 1.371843033
H -0.105912176 -2.034601997 3.111428659
H 3.833370954 -2.907570882 1.306428236
H 3.047398672 1.872196685 -1.984301286
H 6.162388842 1.198684423 -0.886978408
H 4.271573517 3.359293812 0.752510259

