10

O 5.131867764 0.461452147 0.631828475
C 3.178048535 0.176893162 -0.205684349
N 0.160800405 -0.561100127 1.719062672
C -1.708624335 1.279299762 0.693773300
C -1.498018591 -1.372850106 0.087646197
H 1.300457362 -0.650835416 -2.553964895
H -3.078509687 2.017619501 2.026297784
H -1.019267003 2.622221482 -0.715304273
H -0.205131245 -1.293736325 -2.537510351
H -2.497806865 -3.133658642 -0.152416182

