14

C 4.519631119 0.265527799 1.283912470
O 2.599645226 -1.570197588 0.986582659
C 0.283682511 -0.604393563 0.744250266
C -0.756420197 1.699775654 0.712563093
H -0.046093274 3.607473566 0.877820134
C -3.389085609 0.628243985 0.340565082
H -4.305429340 1.094443030 -1.448951815
H -4.723451329 0.957222457 1.880302060
C -2.129179274 -2.040310349 0.385974388
H -2.684403676 -3.248565007 1.962173179
H -2.268316918 -3.105424508 -1.374408752
H 4.196719254 1.387634567 2.990597020
H 4.578146300 1.524716151 -0.355451758
H 6.299476567 -0.748836575 1.443533819

