12

C -3.975980421 -0.189609526 -0.777482328
C -1.626070591 1.341795745 -0.131933629
C -0.203036616 0.264423008 2.118690822
O 1.933037514 1.716704785 2.804637009
H 3.074645518 1.759978946 1.398219736
H -1.422174849 0.247688179 3.785067192
H 0.334185045 -1.705602549 1.736513707
H -0.359301754 1.394628500 -1.770430360
H -2.130980920 3.301150265 0.286699478
H -5.302146676 -0.220268801 0.804562992
H -4.960429277 0.603399756 -2.405456572
H -3.496739262 -2.147208944 -1.228300174

