13

C -3.246602810 -0.432965149 -0.606730568
C -0.915210727 -0.007529689 1.006405301
O 0.606915724 -2.232109179 1.044378610
C 2.989219731 -1.711434074 0.225653576
O 4.606754826 -3.276465169 0.094058793
C 3.079193768 1.015808030 -0.410926161
C 0.828504121 2.005741986 0.043667451
H -4.340527601 -2.012942882 0.132409784
H -4.435809199 1.252262449 -0.595941461
H -2.707620114 -0.852752728 -2.551702421
H -1.469810026 0.393954852 2.960832284
H 4.764430172 1.912458150 -1.125137908
H 0.240562136 3.945973403 -0.216967280

