22

C     2.55607  -0.77769  -1.50342
C     1.25239  -0.25638  -1.21828
N     0.22764   0.35974  -1.19018
C    -0.94356   0.98870  -1.07494
C    -1.04611   2.03679  -0.15962
N    -1.16148   2.94934   0.57597
C    -0.91945  -1.11247   1.07108
C    -1.90261  -1.94406   0.27909
C     0.34911  -1.33882   1.19793
C     1.34616  -0.46625   1.92877
H     2.93747  -0.15579  -2.26465
H     3.18904  -0.78387  -0.59305
H     2.42629  -1.82247  -1.80908
H    -1.80113   0.51927  -1.52025
H    -1.33469  -0.19060   1.54683
H    -2.28610  -2.70477   0.96971
H    -2.77080  -1.38532  -0.10799
H    -1.42634  -2.46286  -0.56629
H     0.80622  -2.18721   0.59356
H     2.36188  -0.38138   1.48619
H     1.46598  -0.94891   2.90028
H     0.96459   0.55019   2.08209
22

C     2.55007  -0.77808  -1.49754
C     1.24433  -0.26575  -1.19580
N     0.23251   0.36427  -1.19880
C    -0.94294   0.97391  -1.05868
C    -1.04626   2.03397  -0.15708
N    -1.16131   2.94930   0.57396
C    -0.91923  -1.10056   1.05724
C    -1.90179  -1.94248   0.27897
C     0.35763  -1.32802   1.17555
C     1.34648  -0.46654   1.92616
H     2.93252  -0.15442  -2.26324
H     3.18964  -0.78384  -0.59325
H     2.42554  -1.82234  -1.80839
H    -1.80106   0.51782  -1.51733
H    -1.33406  -0.19149   1.54854
H    -2.28220  -2.70435   0.97151
H    -2.77265  -1.38716  -0.10621
H    -1.42712  -2.46223  -0.56697
H     0.80544  -2.18824   0.59463
H     2.36343  -0.38235   1.48914
H     1.46138  -0.95065   2.89897
H     0.96556   0.55043   2.08122
22

C     2.54407  -0.77847  -1.49166
C     1.23627  -0.27513  -1.17332
N     0.23737   0.36880  -1.20742
C    -0.94231   0.95912  -1.04242
C    -1.04642   2.03114  -0.15455
N    -1.16115   2.94926   0.57196
C    -0.91900  -1.08864   1.04341
C    -1.90097  -1.94089   0.27884
C     0.36615  -1.31723   1.15317
C     1.34681  -0.46683   1.92356
H     2.92757  -0.15305  -2.26183
H     3.19023  -0.78380  -0.59344
H     2.42480  -1.82221  -1.80771
H    -1.80098   0.51637  -1.51442
H    -1.33343  -0.19238   1.55026
H    -2.27831  -2.70394   0.97330
H    -2.77449  -1.38900  -0.10442
H    -1.42790  -2.46160  -0.56764
H     0.80466  -2.18927   0.59571
H     2.36497  -0.38331   1.49210
H     1.45678  -0.95239   2.89766
H     0.96653   0.55068   2.08034
22

C     2.53807  -0.77886  -1.48579
C     1.22821  -0.28451  -1.15084
N     0.24223   0.37333  -1.21604
C    -0.94169   0.94434  -1.02616
C    -1.04657   2.02832  -0.15201
N    -1.16098   2.94922   0.56995
C    -0.91877  -1.07672   1.02958
C    -1.90015  -1.93931   0.27872
C     0.37466  -1.30643   1.13078
C     1.34713  -0.46713   1.92095
H     2.92262  -0.15168  -2.26042
H     3.19083  -0.78376  -0.59364
H     2.42405  -1.82207  -1.80702
H    -1.80091   0.51493  -1.51151
H    -1.33280  -0.19328   1.55197
H    -2.27442  -2.70353   0.97509
H    -2.77634  -1.39084  -0.10263
H    -1.42869  -2.46097  -0.56832
H     0.80389  -2.19030   0.59679
H     2.36652  -0.38428   1.49506
H     1.45218  -0.95413   2.89635
H     0.96749   0.55093   2.07947
22

C     2.53207  -0.77925  -1.47991
C     1.22015  -0.29389  -1.12835
N     0.24710   0.37786  -1.22465
C    -0.94107   0.92955  -1.00991
C    -1.04672   2.02549  -0.14948
N    -1.16081   2.94919   0.56794
C    -0.91854  -1.06481   1.01574
C    -1.89932  -1.93772   0.27860
C     0.38318  -1.29564   1.10840
C     1.34746  -0.46742   1.91834
H     2.91767  -0.15031  -2.25901
H     3.19142  -0.78372  -0.59383
H     2.42330  -1.82194  -1.80633
H    -1.80083   0.51348  -1.50860
H    -1.33217  -0.19417   1.55368
H    -2.27052  -2.70311   0.97688
H    -2.77819  -1.39269  -0.10085
H    -1.42947  -2.46034  -0.56900
H     0.80311  -2.19133   0.59786
H     2.36807  -0.38524   1.49802
H     1.44758  -0.95587   2.89504
H     0.96846   0.55118   2.07859
22

C     2.52607  -0.77964  -1.47403
C     1.21209  -0.30326  -1.10587
N     0.25196   0.38239  -1.23327
C    -0.94044   0.91476  -0.99365
C    -1.04688   2.02266  -0.14694
N    -1.16065   2.94915   0.56594
C    -0.91831  -1.05289   1.00191
C    -1.89850  -1.93614   0.27848
C     0.39170  -1.28484   1.08602
C     1.34778  -0.46772   1.91574
H     2.91273  -0.14894  -2.25761
H     3.19202  -0.78368  -0.59402
H     2.42255  -1.82181  -1.80564
H    -1.80076   0.51203  -1.50568
H    -1.33154  -0.19506   1.55540
H    -2.26663  -2.70270   0.97867
H    -2.78003  -1.39453  -0.09906
H    -1.43025  -2.45971  -0.56967
H     0.80233  -2.19236   0.59894
H     2.36962  -0.38621   1.50098
H     1.44298  -0.95761   2.89373
H     0.96943   0.55142   2.07771
22

C     2.52008  -0.78003  -1.46816
C     1.20403  -0.31264  -1.08339
N     0.25682   0.38692  -1.24189
C    -0.93982   0.89998  -0.97739
C    -1.04703   2.01984  -0.14441
N    -1.16048   2.94911   0.56393
C    -0.91808  -1.04098   0.98807
C    -1.89768  -1.93455   0.27835
C     0.40021  -1.27404   1.06364
C     1.34811  -0.46801   1.91313
H     2.90778  -0.14757  -2.25620
H     3.19262  -0.78364  -0.59422
H     2.42180  -1.82168  -1.80496
H    -1.80068   0.51058  -1.50277
H    -1.33091  -0.19595   1.55711
H    -2.26274  -2.70228   0.98046
H    -2.78188  -1.39637  -0.09728
H    -1.43103  -2.45908  -0.57035
H     0.80155  -2.19339   0.60001
H     2.37117  -0.38717   1.50394
H     1.43838  -0.95935   2.89241
H     0.97040   0.55167   2.07684
22

C     2.51408  -0.78042  -1.46228
C     1.19597  -0.32202  -1.06091
N     0.26168   0.39145  -1.25050
C    -0.93919   0.88519  -0.96113
C    -1.04718   2.01701  -0.14187
N    -1.16031   2.94907   0.56192
C    -0.91785  -1.02906   0.97424
C    -1.89685  -1.93297   0.27823
C     0.40873  -1.26325   1.04126
C     1.34843  -0.46830   1.91053
H     2.90283  -0.14620  -2.25479
H     3.19321  -0.78361  -0.59441
H     2.42106  -1.82154  -1.80427
H    -1.80061   0.50914  -1.49986
H    -1.33029  -0.19684   1.55883
H    -2.25884  -2.70187   0.98226
H    -2.78372  -1.39821  -0.09549
H    -1.43181  -2.45845  -0.57103
H     0.80077  -2.19442   0.60109
H     2.37272  -0.38814   1.50690
H     1.43377  -0.96109   2.89110
H     0.97136   0.55192   2.07596
22

C     2.50808  -0.78081  -1.45640
C     1.18791  -0.33139  -1.03843
N     0.26655   0.39598  -1.25912
C    -0.93857   0.87040  -0.94487
C    -1.04733   2.01419  -0.13934
N    -1.16015   2.94903   0.55992
C    -0.91762  -1.01715   0.96041
C    -1.89603  -1.93138   0.27811
C     0.41724  -1.25245   1.01887
C     1.34876  -0.46860   1.90792
H     2.89788  -0.14482  -2.25338
H     3.19381  -0.78357  -0.59460
H     2.42031  -1.82141  -1.80358
H    -1.80053   0.50769  -1.49695
H    -1.32966  -0.19774   1.56054
H    -2.25495  -2.70145   0.98405
H    -2.78557  -1.40005  -0.09370
H    -1.43259  -2.45782  -0.57170
H     0.79999  -2.19545   0.60216
H     2.37427  -0.38910   1.50986
H     1.42917  -0.96283   2.88979
H     0.97233   0.55217   2.07509
22

C     2.50208  -0.78120  -1.45053
C     1.17985  -0.34077  -1.01595
N     0.27141   0.40051  -1.26774
C    -0.93795   0.85561  -0.92862
C    -1.04749   2.01136  -0.13680
N    -1.15998   2.94899   0.55791
C    -0.91739  -1.00523   0.94657
C    -1.89521  -1.92979   0.27799
C     0.42576  -1.24166   0.99649
C     1.34909  -0.46889   1.90531
H     2.89293  -0.14345  -2.25197
H     3.19440  -0.78353  -0.59480
H     2.41956  -1.82128  -1.80290
H    -1.80046   0.50624  -1.49404
H    -1.32903  -0.19863   1.56225
H    -2.25106  -2.70104   0.98584
H    -2.78741  -1.40189  -0.09192
H    -1.43338  -2.45719  -0.57238
H     0.79921  -2.19648   0.60324
H     2.37581  -0.39007   1.51281
H     1.42457  -0.96457   2.88848
H     0.97330   0.55241   2.07421
22

C     2.49608  -0.78159  -1.44465
C     1.17179  -0.35015  -0.99346
N     0.27627   0.40504  -1.27636
C    -0.93732   0.84083  -0.91236
C    -1.04764   2.00854  -0.13427
N    -1.15981   2.94895   0.55590
C    -0.91716  -0.99332   0.93274
C    -1.89438  -1.92821   0.27787
C     0.43428  -1.23086   0.97411
C     1.34941  -0.46919   1.90271
H     2.88798  -0.14208  -2.25057
H     3.19500  -0.78349  -0.59499
H     2.41881  -1.82115  -1.80221
H    -1.80038   0.50479  -1.49112
H    -1.32840  -0.19952   1.56397
H    -2.24716  -2.70062   0.98763
H    -2.78926  -1.40374  -0.09013
H    -1.43416  -2.45656  -0.57306
H     0.79843  -2.19751   0.60431
H     2.37736  -0.39103   1.51577
H     1.41997  -0.96631   2.88717
H     0.97427   0.55266   2.07333
22

C     2.49008  -0.78198  -1.43877
C     1.16373  -0.35952  -0.97098
N     0.28113   0.40956  -1.28497
C    -0.93670   0.82604  -0.89610
C    -1.04779   2.00571  -0.13173
N    -1.15965   2.94891   0.55390
C    -0.91694  -0.98140   0.91890
C    -1.89356  -1.92662   0.27774
C     0.44279  -1.22006   0.95173
C     1.34974  -0.46948   1.90010
H     2.88303  -0.14071  -2.24916
H     3.19560  -0.78345  -0.59519
H     2.41807  -1.82101  -1.80152
H    -1.80031   0.50335  -1.48821
H    -1.32777  -0.20041   1.56568
H    -2.24327  -2.70021   0.98942
H    -2.79111  -1.40558  -0.08835
H    -1.43494  -2.45593  -0.57373
H     0.79765  -2.19854   0.60539
H     2.37891  -0.39200   1.51873
H     1.41537  -0.96805   2.88586
H     0.97523   0.55291   2.07246
22

C     2.48408  -0.78237  -1.43290
C     1.15567  -0.36890  -0.94850
N     0.28600   0.41409  -1.29359
C    -0.93607   0.81125  -0.87984
C    -1.04795   2.00289  -0.12920
N    -1.15948   2.94887   0.55189
C    -0.91671  -0.96949   0.90507
C    -1.89274  -1.92504   0.27762
C     0.45131  -1.20927   0.92935
C     1.35006  -0.46978   1.89749
H     2.87808  -0.13934  -2.24775
H     3.19619  -0.78341  -0.59538
H     2.41732  -1.82088  -1.80084
H    -1.80023   0.50190  -1.48530
H    -1.32714  -0.20130   1.56740
H    -2.23938  -2.69980   0.99121
H    -2.79295  -1.40742  -0.08656
H    -1.43572  -2.45530  -0.57441
H     0.79688  -2.19957   0.60646
H     2.38046  -0.39296   1.52169
H     1.41077  -0.96979   2.88455
H     0.97620   0.55315   2.07158
22

C     2.47808  -0.78276  -1.42702
C     1.14760  -0.37828  -0.92602
N     0.29086   0.41862  -1.30221
C    -0.93545   0.79647  -0.86358
C    -1.04810   2.00006  -0.12666
N    -1.15931   2.94883   0.54988
C    -0.91648  -0.95757   0.89124
C    -1.89192  -1.92345   0.27750
C     0.45982  -1.19847   0.90696
C     1.35039  -0.47007   1.89489
H     2.87313  -0.13797  -2.24634
H     3.19679  -0.78338  -0.59557
H     2.41657  -1.82075  -1.80015
H    -1.80016   0.50045  -1.48239
H    -1.32651  -0.20219   1.56911
H    -2.23548  -2.69938   0.99301
H    -2.79480  -1.40926  -0.08477
H    -1.43650  -2.45467  -0.57509
H     0.79610  -2.20060   0.60754
H     2.38201  -0.39393   1.52465
H     1.40617  -0.97153   2.88324
H     0.97717   0.55340   2.07070
22

C     2.47208  -0.78315  -1.42114
C     1.13954  -0.38766  -0.90354
N     0.29572   0.42315  -1.31082
C    -0.93482   0.78168  -0.84732
C    -1.04825   1.99724  -0.12413
N    -1.15915   2.94880   0.54787
C    -0.91625  -0.94565   0.87740
C    -1.89109  -1.92187   0.27738
C     0.46834  -1.18767   0.88458
C     1.35071  -0.47036   1.89228
H     2.86818  -0.13660  -2.24493
H     3.19738  -0.78334  -0.59577
H     2.41582  -1.82062  -1.79946
H    -1.80009   0.49901  -1.47948
H    -1.32588  -0.20309   1.57082
H    -2.23159  -2.69897   0.99480
H    -2.79664  -1.41110  -0.08299
H    -1.43729  -2.45404  -0.57577
H     0.79532  -2.20163   0.60861
H     2.38356  -0.39489   1.52761
H     1.40157  -0.97327   2.88193
H     0.97814   0.55365   2.06983
22

C     2.46609  -0.78354  -1.41527
C     1.13148  -0.39703  -0.88106
N     0.30058   0.42768  -1.31944
C    -0.93420   0.76689  -0.83107
C    -1.04840   1.99441  -0.12159
N    -1.15898   2.94876   0.54587
C    -0.91602  -0.93374   0.86357
C    -1.89027  -1.92028   0.27725
C     0.47686  -1.17688   0.86220
C     1.35104  -0.47066   1.88967
H     2.86323  -0.13523  -2.24353
H     3.19798  -0.78330  -0.59596
H     2.41508  -1.82049  -1.79877
H    -1.80001   0.49756  -1.47656
H    -1.32525  -0.20398   1.57254
H    -2.22770  -2.69855   0.99659
H    -2.79849  -1.41294  -0.08120
H    -1.43807  -2.45341  -0.57644
H     0.79454  -2.20266   0.60969
H     2.38511  -0.39586   1.53057
H     1.39697  -0.97502   2.88061
H     0.97910   0.55390   2.06895
22

C     2.46009  -0.78393  -1.40939
C     1.12342  -0.40641  -0.85857
N     0.30545   0.43221  -1.32806
C    -0.93358   0.75211  -0.81481
C    -1.04856   1.99158  -0.11906
N    -1.15881   2.94872   0.54386
C    -0.91579  -0.92182   0.84973
C    -1.88945  -1.91870   0.27713
C     0.48537  -1.16608   0.83982
C     1.35136  -0.47095   1.88707
H     2.85828  -0.13386  -2.24212
H     3.19858  -0.78326  -0.59615
H     2.41433  -1.82035  -1.79809
H    -1.79994   0.49611  -1.47365
H    -1.32462  -0.20487   1.57425
H    -2.22380  -2.69814   0.99838
H    -2.80033  -1.41479  -0.07942
H    -1.43885  -2.45278  -0.57712
H     0.79376  -2.20369   0.61076
H     2.38665  -0.39682   1.53353
H     1.39237  -0.97676   2.87930
H     0.98007   0.55414   2.06808
22

C     2.45409  -0.78432  -1.40351
C     1.11536  -0.41579  -0.83609
N     0.31031   0.43674  -1.33668
C    -0.93295   0.73732  -0.79855
C    -1.04871   1.98876  -0.11652
N    -1.15865   2.94868   0.54185
C    -0.91556  -0.90991   0.83590
C    -1.88862  -1.91711   0.27701
C     0.49389  -1.15529   0.81744
C     1.35169  -0.47125   1.88446
H     2.85333  -0.13249  -2.24071
H     3.19917  -0.78322  -0.59635
H     2.41358  -1.82022  -1.79740
H    -1.79986   0.49466  -1.47074
H    -1.32400  -0.20576   1.57596
H    -2.21991  -2.69772   1.00017
H    -2.80218  -1.41663  -0.07763
H    -1.43963  -2.45215  -0.57780
H     0.79298  -2.20472   0.61184
H     2.38820  -0.39779   1.53648
H     1.38777  -0.97850   2.87799
H     0.98104   0.55439   2.06720
22

C     2.44809  -0.78471  -1.39764
C     1.10730  -0.42516  -0.81361
N     0.31517   0.44127  -1.34529
C    -0.93233   0.72253  -0.78229
C    -1.04886   1.98593  -0.11399
N    -1.15848   2.94864   0.53985
C    -0.91533  -0.89799   0.82207
C    -1.88780  -1.91552   0.27689
C     0.50241  -1.14449   0.79506
C     1.35202  -0.47154   1.88185
H     2.84838  -0.13112  -2.23930
H     3.19977  -0.78318  -0.59654
H     2.41283  -1.82009  -1.79671
H    -1.79979   0.49322  -1.46783
H    -1.32337  -0.20665   1.57768
H    -2.21602  -2.69731   1.00197
H    -2.80403  -1.41847  -0.07584
H    -1.44041  -2.45152  -0.57847
H     0.79220  -2.20575   0.61291
H     2.38975  -0.39875   1.53944
H     1.38317  -0.98024   2.87668
H     0.98201   0.55464   2.06632
22

C     2.44209  -0.78510  -1.39176
C     1.09924  -0.43454  -0.79113
N     0.32004   0.44580  -1.35391
C    -0.93170   0.70774  -0.76603
C    -1.04902   1.98311  -0.11145
N    -1.15831   2.94860   0.53784
C    -0.91510  -0.88608   0.80823
C    -1.88698  -1.91394   0.27676
C     0.51092  -1.13369   0.77267
C     1.35234  -0.47184   1.87925
H     2.84344  -0.12975  -2.23789
H     3.20036  -0.78315  -0.59674
H     2.41209  -1.81996  -1.79603
H    -1.79971   0.49177  -1.46491
H    -1.32274  -0.20755   1.57939
H    -2.21213  -2.69689   1.00376
H    -2.80587  -1.42031  -0.07406
H    -1.44120  -2.45089  -0.57915
H     0.79142  -2.20678   0.61399
H     2.39130  -0.39972   1.54240
H     1.37857  -0.98198   2.87537
H     0.98297   0.55489   2.06545
22

C     2.43609  -0.78549  -1.38589
C     1.09118  -0.44392  -0.76865
N     0.32490   0.45033  -1.36253
C    -0.93108   0.69296  -0.74977
C    -1.04917   1.98028  -0.10892
N    -1.15815   2.94856   0.53583
C    -0.91487  -0.87416   0.79440
C    -1.88616  -1.91235   0.27664
C     0.51944  -1.12290   0.75029
C     1.35267  -0.47213   1.87664
H     2.83849  -0.12838  -2.23648
H     3.20096  -0.78311  -0.59693
H     2.41134  -1.81982  -1.79534
H    -1.79964   0.49032  -1.46200
H    -1.32211  -0.20844   1.58111
H    -2.20823  -2.69648   1.00555
H    -2.80772  -1.42215  -0.07227
H    -1.44198  -2.45026  -0.57983
H     0.79064  -2.20781   0.61506
H     2.39285  -0.40068   1.54536
H     1.37396  -0.98372   2.87406
H     0.98394   0.55513   2.06457
22

C     2.44209  -0.78510  -1.39176
C     1.09924  -0.43454  -0.79113
N     0.32004   0.44580  -1.35391
C    -0.93170   0.70774  -0.76603
C    -1.04902   1.98311  -0.11145
N    -1.15831   2.94860   0.53784
C    -0.91510  -0.88608   0.80823
C    -1.88698  -1.91394   0.27676
C     0.51092  -1.13369   0.77267
C     1.35234  -0.47184   1.87925
H     2.84344  -0.12975  -2.23789
H     3.20036  -0.78315  -0.59674
H     2.41209  -1.81996  -1.79603
H    -1.79971   0.49177  -1.46491
H    -1.32274  -0.20755   1.57939
H    -2.21213  -2.69689   1.00376
H    -2.80587  -1.42031  -0.07406
H    -1.44120  -2.45089  -0.57915
H     0.79142  -2.20678   0.61399
H     2.39130  -0.39972   1.54240
H     1.37857  -0.98198   2.87537
H     0.98297   0.55489   2.06545
22

C     2.44809  -0.78471  -1.39764
C     1.10730  -0.42516  -0.81361
N     0.31517   0.44127  -1.34529
C    -0.93233   0.72253  -0.78229
C    -1.04886   1.98593  -0.11399
N    -1.15848   2.94864   0.53985
C    -0.91533  -0.89799   0.82207
C    -1.88780  -1.91552   0.27689
C     0.50241  -1.14449   0.79506
C     1.35202  -0.47154   1.88185
H     2.84838  -0.13112  -2.23930
H     3.19977  -0.78318  -0.59654
H     2.41283  -1.82009  -1.79671
H    -1.79979   0.49322  -1.46783
H    -1.32337  -0.20665   1.57768
H    -2.21602  -2.69731   1.00197
H    -2.80403  -1.41847  -0.07584
H    -1.44041  -2.45152  -0.57847
H     0.79220  -2.20575   0.61291
H     2.38975  -0.39875   1.53944
H     1.38317  -0.98024   2.87668
H     0.98201   0.55464   2.06632
22

C     2.45409  -0.78432  -1.40351
C     1.11536  -0.41579  -0.83609
N     0.31031   0.43674  -1.33668
C    -0.93295   0.73732  -0.79855
C    -1.04871   1.98876  -0.11652
N    -1.15865   2.94868   0.54185
C    -0.91556  -0.90991   0.83590
C    -1.88862  -1.91711   0.27701
C     0.49389  -1.15529   0.81744
C     1.35169  -0.47125   1.88446
H     2.85333  -0.13249  -2.24071
H     3.19917  -0.78322  -0.59635
H     2.41358  -1.82022  -1.79740
H    -1.79986   0.49466  -1.47074
H    -1.32400  -0.20576   1.57596
H    -2.21991  -2.69772   1.00017
H    -2.80218  -1.41663  -0.07763
H    -1.43963  -2.45215  -0.57780
H     0.79298  -2.20472   0.61184
H     2.38820  -0.39779   1.53648
H     1.38777  -0.97850   2.87799
H     0.98104   0.55439   2.06720
22

C     2.46009  -0.78393  -1.40939
C     1.12342  -0.40641  -0.85857
N     0.30545   0.43221  -1.32806
C    -0.93358   0.75211  -0.81481
C    -1.04856   1.99158  -0.11906
N    -1.15881   2.94872   0.54386
C    -0.91579  -0.92182   0.84973
C    -1.88945  -1.91870   0.27713
C     0.48537  -1.16608   0.83982
C     1.35136  -0.47095   1.88707
H     2.85828  -0.13386  -2.24212
H     3.19858  -0.78326  -0.59615
H     2.41433  -1.82035  -1.79809
H    -1.79994   0.49611  -1.47365
H    -1.32462  -0.20487   1.57425
H    -2.22380  -2.69814   0.99838
H    -2.80033  -1.41479  -0.07942
H    -1.43885  -2.45278  -0.57712
H     0.79376  -2.20369   0.61076
H     2.38665  -0.39682   1.53353
H     1.39237  -0.97676   2.87930
H     0.98007   0.55414   2.06808
22

C     2.46609  -0.78354  -1.41527
C     1.13148  -0.39703  -0.88106
N     0.30058   0.42768  -1.31944
C    -0.93420   0.76689  -0.83107
C    -1.04840   1.99441  -0.12159
N    -1.15898   2.94876   0.54587
C    -0.91602  -0.93374   0.86357
C    -1.89027  -1.92028   0.27725
C     0.47686  -1.17688   0.86220
C     1.35104  -0.47066   1.88967
H     2.86323  -0.13523  -2.24353
H     3.19798  -0.78330  -0.59596
H     2.41508  -1.82049  -1.79877
H    -1.80001   0.49756  -1.47656
H    -1.32525  -0.20398   1.57254
H    -2.22770  -2.69855   0.99659
H    -2.79849  -1.41294  -0.08120
H    -1.43807  -2.45341  -0.57644
H     0.79454  -2.20266   0.60969
H     2.38511  -0.39586   1.53057
H     1.39697  -0.97502   2.88061
H     0.97910   0.55390   2.06895
22

C     2.47208  -0.78315  -1.42114
C     1.13954  -0.38766  -0.90354
N     0.29572   0.42315  -1.31082
C    -0.93482   0.78168  -0.84732
C    -1.04825   1.99724  -0.12413
N    -1.15915   2.94880   0.54787
C    -0.91625  -0.94565   0.87740
C    -1.89109  -1.92187   0.27738
C     0.46834  -1.18767   0.88458
C     1.35071  -0.47036   1.89228
H     2.86818  -0.13660  -2.24493
H     3.19738  -0.78334  -0.59577
H     2.41582  -1.82062  -1.79946
H    -1.80009   0.49901  -1.47948
H    -1.32588  -0.20309   1.57082
H    -2.23159  -2.69897   0.99480
H    -2.79664  -1.41110  -0.08299
H    -1.43729  -2.45404  -0.57577
H     0.79532  -2.20163   0.60861
H     2.38356  -0.39489   1.52761
H     1.40157  -0.97327   2.88193
H     0.97814   0.55365   2.06983
22

C     2.47808  -0.78276  -1.42702
C     1.14760  -0.37828  -0.92602
N     0.29086   0.41862  -1.30221
C    -0.93545   0.79647  -0.86358
C    -1.04810   2.00006  -0.12666
N    -1.15931   2.94883   0.54988
C    -0.91648  -0.95757   0.89124
C    -1.89192  -1.92345   0.27750
C     0.45982  -1.19847   0.90696
C     1.35039  -0.47007   1.89489
H     2.87313  -0.13797  -2.24634
H     3.19679  -0.78338  -0.59557
H     2.41657  -1.82075  -1.80015
H    -1.80016   0.50045  -1.48239
H    -1.32651  -0.20219   1.56911
H    -2.23548  -2.69938   0.99301
H    -2.79480  -1.40926  -0.08477
H    -1.43650  -2.45467  -0.57509
H     0.79610  -2.20060   0.60754
H     2.38201  -0.39393   1.52465
H     1.40617  -0.97153   2.88324
H     0.97717   0.55340   2.07070
22

C     2.48408  -0.78237  -1.43290
C     1.15567  -0.36890  -0.94850
N     0.28600   0.41409  -1.29359
C    -0.93607   0.81125  -0.87984
C    -1.04795   2.00289  -0.12920
N    -1.15948   2.94887   0.55189
C    -0.91671  -0.96949   0.90507
C    -1.89274  -1.92504   0.27762
C     0.45131  -1.20927   0.92935
C     1.35006  -0.46978   1.89749
H     2.87808  -0.13934  -2.24775
H     3.19619  -0.78341  -0.59538
H     2.41732  -1.82088  -1.80084
H    -1.80023   0.50190  -1.48530
H    -1.32714  -0.20130   1.56740
H    -2.23938  -2.69980   0.99121
H    -2.79295  -1.40742  -0.08656
H    -1.43572  -2.45530  -0.57441
H     0.79688  -2.19957   0.60646
H     2.38046  -0.39296   1.52169
H     1.41077  -0.96979   2.88455
H     0.97620   0.55315   2.07158
22

C     2.49008  -0.78198  -1.43877
C     1.16373  -0.35952  -0.97098
N     0.28113   0.40956  -1.28497
C    -0.93670   0.82604  -0.89610
C    -1.04779   2.00571  -0.13173
N    -1.15965   2.94891   0.55390
C    -0.91694  -0.98140   0.91890
C    -1.89356  -1.92662   0.27774
C     0.44279  -1.22006   0.95173
C     1.34974  -0.46948   1.90010
H     2.88303  -0.14071  -2.24916
H     3.19560  -0.78345  -0.59519
H     2.41807  -1.82101  -1.80152
H    -1.80031   0.50335  -1.48821
H    -1.32777  -0.20041   1.56568
H    -2.24327  -2.70021   0.98942
H    -2.79111  -1.40558  -0.08835
H    -1.43494  -2.45593  -0.57373
H     0.79765  -2.19854   0.60539
H     2.37891  -0.39200   1.51873
H     1.41537  -0.96805   2.88586
H     0.97523   0.55291   2.07246
22

C     2.49608  -0.78159  -1.44465
C     1.17179  -0.35015  -0.99346
N     0.27627   0.40504  -1.27636
C    -0.93732   0.84083  -0.91236
C    -1.04764   2.00854  -0.13427
N    -1.15981   2.94895   0.55590
C    -0.91716  -0.99332   0.93274
C    -1.89438  -1.92821   0.27787
C     0.43428  -1.23086   0.97411
C     1.34941  -0.46919   1.90271
H     2.88798  -0.14208  -2.25057
H     3.19500  -0.78349  -0.59499
H     2.41881  -1.82115  -1.80221
H    -1.80038   0.50479  -1.49112
H    -1.32840  -0.19952   1.56397
H    -2.24716  -2.70062   0.98763
H    -2.78926  -1.40374  -0.09013
H    -1.43416  -2.45656  -0.57306
H     0.79843  -2.19751   0.60431
H     2.37736  -0.39103   1.51577
H     1.41997  -0.96631   2.88717
H     0.97427   0.55266   2.07333
22

C     2.50208  -0.78120  -1.45053
C     1.17985  -0.34077  -1.01595
N     0.27141   0.40051  -1.26774
C    -0.93795   0.85561  -0.92862
C    -1.04749   2.01136  -0.13680
N    -1.15998   2.94899   0.55791
C    -0.91739  -1.00523   0.94657
C    -1.89521  -1.92979   0.27799
C     0.42576  -1.24166   0.99649
C     1.34909  -0.46889   1.90531
H     2.89293  -0.14345  -2.25197
H     3.19440  -0.78353  -0.59480
H     2.41956  -1.82128  -1.80290
H    -1.80046   0.50624  -1.49404
H    -1.32903  -0.19863   1.56225
H    -2.25106  -2.70104   0.98584
H    -2.78741  -1.40189  -0.09192
H    -1.43338  -2.45719  -0.57238
H     0.79921  -2.19648   0.60324
H     2.37581  -0.39007   1.51281
H     1.42457  -0.96457   2.88848
H     0.97330   0.55241   2.07421
22

C     2.50808  -0.78081  -1.45640
C     1.18791  -0.33139  -1.03843
N     0.26655   0.39598  -1.25912
C    -0.93857   0.87040  -0.94487
C    -1.04733   2.01419  -0.13934
N    -1.16015   2.94903   0.55992
C    -0.91762  -1.01715   0.96041
C    -1.89603  -1.93138   0.27811
C     0.41724  -1.25245   1.01887
C     1.34876  -0.46860   1.90792
H     2.89788  -0.14482  -2.25338
H     3.19381  -0.78357  -0.59460
H     2.42031  -1.82141  -1.80358
H    -1.80053   0.50769  -1.49695
H    -1.32966  -0.19774   1.56054
H    -2.25495  -2.70145   0.98405
H    -2.78557  -1.40005  -0.09370
H    -1.43259  -2.45782  -0.57170
H     0.79999  -2.19545   0.60216
H     2.37427  -0.38910   1.50986
H     1.42917  -0.96283   2.88979
H     0.97233   0.55217   2.07509
22

C     2.51408  -0.78042  -1.46228
C     1.19597  -0.32202  -1.06091
N     0.26168   0.39145  -1.25050
C    -0.93919   0.88519  -0.96113
C    -1.04718   2.01701  -0.14187
N    -1.16031   2.94907   0.56192
C    -0.91785  -1.02906   0.97424
C    -1.89685  -1.93297   0.27823
C     0.40873  -1.26325   1.04126
C     1.34843  -0.46830   1.91053
H     2.90283  -0.14620  -2.25479
H     3.19321  -0.78361  -0.59441
H     2.42106  -1.82154  -1.80427
H    -1.80061   0.50914  -1.49986
H    -1.33029  -0.19684   1.55883
H    -2.25884  -2.70187   0.98226
H    -2.78372  -1.39821  -0.09549
H    -1.43181  -2.45845  -0.57103
H     0.80077  -2.19442   0.60109
H     2.37272  -0.38814   1.50690
H     1.43377  -0.96109   2.89110
H     0.97136   0.55192   2.07596
22

C     2.52008  -0.78003  -1.46816
C     1.20403  -0.31264  -1.08339
N     0.25682   0.38692  -1.24189
C    -0.93982   0.89998  -0.97739
C    -1.04703   2.01984  -0.14441
N    -1.16048   2.94911   0.56393
C    -0.91808  -1.04098   0.98807
C    -1.89768  -1.93455   0.27835
C     0.40021  -1.27404   1.06364
C     1.34811  -0.46801   1.91313
H     2.90778  -0.14757  -2.25620
H     3.19262  -0.78364  -0.59422
H     2.42180  -1.82168  -1.80496
H    -1.80068   0.51058  -1.50277
H    -1.33091  -0.19595   1.55711
H    -2.26274  -2.70228   0.98046
H    -2.78188  -1.39637  -0.09728
H    -1.43103  -2.45908  -0.57035
H     0.80155  -2.19339   0.60001
H     2.37117  -0.38717   1.50394
H     1.43838  -0.95935   2.89241
H     0.97040   0.55167   2.07684
22

C     2.52607  -0.77964  -1.47403
C     1.21209  -0.30326  -1.10587
N     0.25196   0.38239  -1.23327
C    -0.94044   0.91476  -0.99365
C    -1.04688   2.02266  -0.14694
N    -1.16065   2.94915   0.56594
C    -0.91831  -1.05289   1.00191
C    -1.89850  -1.93614   0.27848
C     0.39170  -1.28484   1.08602
C     1.34778  -0.46772   1.91574
H     2.91273  -0.14894  -2.25761
H     3.19202  -0.78368  -0.59402
H     2.42255  -1.82181  -1.80564
H    -1.80076   0.51203  -1.50568
H    -1.33154  -0.19506   1.55540
H    -2.26663  -2.70270   0.97867
H    -2.78003  -1.39453  -0.09906
H    -1.43025  -2.45971  -0.56967
H     0.80233  -2.19236   0.59894
H     2.36962  -0.38621   1.50098
H     1.44298  -0.95761   2.89373
H     0.96943   0.55142   2.07771
22

C     2.53207  -0.77925  -1.47991
C     1.22015  -0.29389  -1.12835
N     0.24710   0.37786  -1.22465
C    -0.94107   0.92955  -1.00991
C    -1.04672   2.02549  -0.14948
N    -1.16081   2.94919   0.56794
C    -0.91854  -1.06481   1.01574
C    -1.89932  -1.93772   0.27860
C     0.38318  -1.29564   1.10840
C     1.34746  -0.46742   1.91834
H     2.91767  -0.15031  -2.25901
H     3.19142  -0.78372  -0.59383
H     2.42330  -1.82194  -1.80633
H    -1.80083   0.51348  -1.50860
H    -1.33217  -0.19417   1.55368
H    -2.27052  -2.70311   0.97688
H    -2.77819  -1.39269  -0.10085
H    -1.42947  -2.46034  -0.56900
H     0.80311  -2.19133   0.59786
H     2.36807  -0.38524   1.49802
H     1.44758  -0.95587   2.89504
H     0.96846   0.55118   2.07859
22

C     2.53807  -0.77886  -1.48579
C     1.22821  -0.28451  -1.15084
N     0.24223   0.37333  -1.21604
C    -0.94169   0.94434  -1.02616
C    -1.04657   2.02832  -0.15201
N    -1.16098   2.94922   0.56995
C    -0.91877  -1.07672   1.02958
C    -1.90015  -1.93931   0.27872
C     0.37466  -1.30643   1.13078
C     1.34713  -0.46713   1.92095
H     2.92262  -0.15168  -2.26042
H     3.19083  -0.78376  -0.59364
H     2.42405  -1.82207  -1.80702
H    -1.80091   0.51493  -1.51151
H    -1.33280  -0.19328   1.55197
H    -2.27442  -2.70353   0.97509
H    -2.77634  -1.39084  -0.10263
H    -1.42869  -2.46097  -0.56832
H     0.80389  -2.19030   0.59679
H     2.36652  -0.38428   1.49506
H     1.45218  -0.95413   2.89635
H     0.96749   0.55093   2.07947
22

C     2.54407  -0.77847  -1.49166
C     1.23627  -0.27513  -1.17332
N     0.23737   0.36880  -1.20742
C    -0.94231   0.95912  -1.04242
C    -1.04642   2.03114  -0.15455
N    -1.16115   2.94926   0.57196
C    -0.91900  -1.08864   1.04341
C    -1.90097  -1.94089   0.27884
C     0.36615  -1.31723   1.15317
C     1.34681  -0.46683   1.92356
H     2.92757  -0.15305  -2.26183
H     3.19023  -0.78380  -0.59344
H     2.42480  -1.82221  -1.80771
H    -1.80098   0.51637  -1.51442
H    -1.33343  -0.19238   1.55026
H    -2.27831  -2.70394   0.97330
H    -2.77449  -1.38900  -0.10442
H    -1.42790  -2.46160  -0.56764
H     0.80466  -2.18927   0.59571
H     2.36497  -0.38331   1.49210
H     1.45678  -0.95239   2.89766
H     0.96653   0.55068   2.08034
22

C     2.55007  -0.77808  -1.49754
C     1.24433  -0.26575  -1.19580
N     0.23251   0.36427  -1.19880
C    -0.94294   0.97391  -1.05868
C    -1.04626   2.03397  -0.15708
N    -1.16131   2.94930   0.57396
C    -0.91923  -1.10056   1.05724
C    -1.90179  -1.94248   0.27897
C     0.35763  -1.32802   1.17555
C     1.34648  -0.46654   1.92616
H     2.93252  -0.15442  -2.26324
H     3.18964  -0.78384  -0.59325
H     2.42554  -1.82234  -1.80839
H    -1.80106   0.51782  -1.51733
H    -1.33406  -0.19149   1.54854
H    -2.28220  -2.70435   0.97151
H    -2.77265  -1.38716  -0.10621
H    -1.42712  -2.46223  -0.56697
H     0.80544  -2.18824   0.59463
H     2.36343  -0.38235   1.48914
H     1.46138  -0.95065   2.89897
H     0.96556   0.55043   2.08122
