17

C 3.507651108 1.435544491 -1.619944193
C 1.504324097 -0.262025040 -0.576347061
C -0.517319802 -2.612350894 1.835584413
C -2.389180153 -2.134342875 -0.277867748
C -1.330269682 0.399647615 -1.133046752
C -1.255078330 2.100250648 1.161760384
O 0.803038625 0.669396891 2.232480170
H 5.343353968 1.024682467 -0.775663618
H 3.667827563 1.062000060 -3.646520466
H 3.135317046 3.469335399 -1.374574160
H 0.799622208 -4.157462386 1.654782957
H -1.251500984 -2.424559096 3.752075579
H -4.357830425 -2.122398030 0.357766975
H -2.123367762 -3.534065832 -1.769919397
H -1.972913229 1.139378109 -2.943500037
H -2.900159943 2.183608621 2.412951283
H -0.598150569 4.014923935 0.773240290

