12

O -2.340437484 3.929898656 0.131619746
C -0.736866860 2.154217635 0.179117369
C -1.856353731 -0.259179699 0.416506371
C -0.205271141 -2.397197392 -0.513787942
N 2.490650321 -1.814271987 -0.215654638
C 3.213425474 0.411820550 -0.066556778
O 1.682165032 2.600784050 -0.180911438
H -2.695493495 -0.495981563 2.280346517
H -3.622628810 1.934634162 -0.144568641
H -0.490496784 -2.811634362 -2.519528737
H -0.574975724 -4.151177611 0.498159264
H 5.169941096 0.979776641 0.125394516

