9

O -1.204629899 2.787729478 0.615601302
C -0.338820203 0.523063228 -0.094138483
C -1.976002988 -1.651312589 0.289168915
O -1.247984373 -3.808008430 0.108762072
C 2.324629585 -0.015584893 -0.557251567
N 3.805837550 -1.387030157 -1.635229791
H -0.479815976 4.102781460 -0.413006145
H 3.035133632 0.955493301 1.196871401
H -3.984391365 -1.158919143 0.582665454

