13

C -3.030566976 -1.457650772 -0.030288266
C -1.353513975 -0.104993165 1.832566690
C 0.675372432 1.649175006 0.776068416
C 2.025461883 0.683196616 -1.540241233
C 4.331406970 -0.214475317 -1.462010956
O 6.373007455 -0.990825983 -1.399102370
O -1.608189095 -0.340580974 4.081524233
H -3.708636255 -0.160916812 -1.486748813
H -4.619313284 -2.309746442 0.955466240
H -1.946410727 -2.931151282 -0.986094430
H 1.991863119 2.048161084 2.307636563
H -0.262132679 3.437184713 0.316860773
H 1.141734692 0.693611634 -3.384398030

