17

C -3.520922409 -0.094140108 -0.250593142
C -1.507448778 1.805588299 -1.016644007
O -1.293591421 3.785343981 0.784572807
C 2.259650520 -4.562534403 1.939325709
C 1.097897506 0.657421262 -1.570280906
C 2.613975491 -0.189342186 0.698470611
O 1.401924336 -2.289275889 1.988443868
H -5.342616919 0.855395793 -0.074412672
H -3.707523774 -1.583753746 -1.664570813
H -3.061673512 -1.000393477 1.544965492
H -2.125889639 2.727143214 -2.761117126
H -1.671668000 3.117625997 2.427269303
H 4.055278602 -4.520501640 0.794313854
H 0.899386501 -0.908717893 -2.905625315
H 2.236014072 2.105451136 -2.508470457
H 2.769392048 1.320096133 2.091998384
H 4.504431145 -0.812251872 0.142795151

