18

C 4.381645831 -0.882802529 -2.376923824
C 2.355242165 -0.696725695 -0.449851231
C 1.779573535 0.758707918 1.861759463
N 0.159439614 0.543777272 -0.354756925
C -2.246564961 -0.081038278 -0.711343086
C -4.343677643 1.142345716 0.756733816
O -3.811406271 1.582686372 3.328226771
H 3.633704873 -1.680446024 -4.125167401
H 5.872317885 -2.135327631 -1.704131794
H 5.236083419 0.953405210 -2.807182848
H 0.608726592 -3.371499288 0.098464161
H 2.483501354 2.661363511 2.216206208
H 1.213937631 -0.302430616 3.535763732
H -2.717007083 -0.692786655 -2.613614403
H -1.002397966 -3.428063005 0.198788285
H -4.942517452 2.905365874 -0.169818065
H -5.969950642 -0.125911129 0.700757633
H -2.629210199 2.948330687 3.456603785

