13

C -0.948009948 2.819938953 -0.857984151
C -0.339090339 0.104762353 -0.264356622
C -2.382342085 -1.810837259 -0.767293397
C 1.852236150 -0.557849816 0.642668794
C 4.040092876 -1.224997159 1.547770828
H 0.625389724 4.067243913 -0.409336448
H -1.404021951 3.035203873 -2.862294858
H -2.602851845 3.438272345 0.214507952
H 4.378670778 -1.297095634 3.567979934
H -4.073134170 -1.364879203 0.334425342
H -1.772903407 -3.716056246 -0.286205522
H -2.925766431 -1.778748178 -2.761144546
H 5.592730146 -1.729380293 0.308593958

