13

C -0.654950710 2.677505268 -0.623015850
C -0.177130058 0.144423642 0.690793183
C -2.085476467 -1.864356873 -0.141347073
C 2.416069010 -0.720411012 0.239810988
C 4.524428831 -1.433101604 -0.176001022
H 0.693736186 4.105558337 -0.001619212
H -0.473551515 2.474096263 -2.668246536
H -2.560456577 3.348587663 -0.204388431
H -0.379419892 0.424817670 2.731485087
H -4.007572711 -1.237402965 0.270345429
H -1.760433633 -3.650222364 0.833456318
H -1.934737398 -2.205856367 -2.170373471
H 6.399494914 -2.063637677 -0.537489435

