11

C 3.195153958 -0.777992554 -3.165635434
O 1.498056669 0.379187474 -1.463062229
C 0.073730726 -1.284288733 -0.110047955
H -0.275089473 -3.112178805 -0.987384300
C -1.974327141 -0.240856782 4.239279345
H -3.820128812 0.648590875 4.335956089
H -1.049569159 -0.682211786 6.015645013
C -0.908860983 -0.738864622 2.083093182
H 2.198342986 -2.038631176 -4.471927326
H 4.651075612 -1.852328407 -2.162475115
H 4.086298966 0.733093304 -4.238368686

