10

C 1.798880924 -1.430598681 -1.209616187
C 4.058857894 -1.464544077 -1.274364875
H 6.069421006 -1.505084466 -1.326325805
C -0.957111908 -1.319831685 -1.134914425
C -1.938481342 1.346610125 -1.469682261
N -3.539563593 2.461310603 -0.106887483
H -4.114735792 1.342346109 1.355144487
H -1.165856196 2.367934700 -3.088867881
H -1.656016193 -2.111943498 0.639672841
H -1.713401997 -2.488240598 -2.667047788

