12

C -0.958416197 2.114853185 -0.314502149
O -1.175743564 0.534368930 -2.462040377
C -0.763869951 -1.943792304 -1.880869451
C 1.337930821 1.382362118 1.238543491
O 1.101177900 -1.131403824 2.123633495
C 0.253029547 -2.723356184 0.280831179
H -2.666393565 1.941144722 0.844215531
H -0.802014091 4.050265612 -1.001592848
H -1.347642104 -3.240130215 -3.344436048
H 3.045223428 1.542977935 0.076756952
H 1.528990031 2.591792922 2.894572363
H 0.491983261 -4.700019140 0.727658792

