13

O 1.589954693 -5.130928400 0.019542149
C 1.075751314 -2.913143590 -0.263885608
C -1.318382681 -2.094192016 -1.443135238
H -2.586625769 -3.586142583 -2.040967898
C -1.879061436 0.337328623 -1.746936321
H -3.653720247 0.884254651 -2.618753437
C -0.167099467 2.418541150 -0.931260511
H 0.258752620 3.640601107 -2.551553888
H -1.174150827 3.656474296 0.393299987
C 2.238653263 1.546482659 0.243650080
H 3.551941979 2.997589196 0.858312302
C 2.809522877 -0.882380855 0.551060938
H 4.566919304 -1.490071934 1.408051565

