15

O 1.836187727 -5.080034050 -0.436121407
C 1.046878510 -2.916150711 -0.198079051
C -1.488984963 -2.134265775 -0.675541619
C -2.190052455 0.519701386 -0.290457803
C -0.148645706 2.455206920 -0.698082972
C 2.318534840 1.566853453 0.388074195
C 2.828596355 -0.879235935 0.646613314
H -2.932523752 -3.501618384 -1.134340666
H -2.237566236 -0.602577102 1.800091085
H -4.077697046 1.014597830 -0.924324139
H -2.710814204 1.159842294 2.279548127
H 0.020879244 2.652975546 -2.757604012
H -0.698760646 4.294611263 0.052770942
H 3.707852284 2.993223361 0.871649025
H 4.627799250 -1.534021578 1.373283779

