11

O 1.669564565 -1.213011420 -0.797213809
C -0.095373192 0.069403631 0.656485829
O 0.911367931 1.798813404 2.348614215
H 1.518718122 0.910500830 3.809325474
C -2.511346658 -1.236855285 1.321369431
H -3.375564581 -0.791220675 3.120582115
H -2.784774797 -3.150438654 0.653477291
C -2.425251208 0.855101695 -0.654182158
H -2.621454650 0.309603450 -2.612911784
H -3.215649663 2.666549297 -0.137746465
H 2.347991324 -2.586560271 0.174482230

