14

O 2.834177756 -0.744208522 0.536972614
C 2.530562357 0.095350913 -2.334938060
C -0.224353615 0.574755552 0.697343881
O 0.253391619 2.357788458 2.439243591
C -2.178609767 -1.404998939 0.941839708
C -2.583099256 0.905743313 -0.760806327
H 2.431286445 -2.514353911 0.515679142
H 3.789251651 -1.186538152 -3.368547328
H 3.469355354 1.936551043 -2.283463734
H 1.281606966 1.648430832 3.761510547
H -3.182540150 -1.518187222 2.721956181
H -1.919906714 -3.184250276 -0.031954154
H -2.536891163 0.594227781 -2.767797781
H -3.835894532 2.376073410 -0.072688542

