14

O 2.813775290 -0.635387131 2.702884479
C 0.945056060 -0.220260562 0.932079594
C -1.885759249 -0.380768400 1.540601132
C -1.688778658 0.303360418 -1.298043559
C 0.385104263 2.228346092 -0.569885539
C 0.405104312 -1.722304346 -1.521161084
H 4.429954317 -0.432630686 1.906524713
H -2.634871308 1.073730365 2.793995961
H -2.619163073 -2.252870315 1.993601705
H -3.238635536 0.610909452 -2.605174394
H 1.728061661 2.736362432 -2.051935415
H -0.214504513 3.864247416 0.531463986
H -0.174381999 -3.686347522 -1.285739760
H 1.749038452 -1.486387232 -3.069211800

