14

C 4.115737933 1.537186472 0.207453435
N 2.819923608 -0.846874942 0.376474149
C 0.428915674 -1.300817147 0.007520071
O 0.054735974 -3.680302949 0.357507251
N -1.429794225 0.342088409 -0.632594400
C -3.931871738 -0.345567527 -0.978939586
N -5.538262116 1.308279544 -1.582764720
H 3.432837266 2.898550558 1.610391174
H 3.947476019 2.385022246 -1.674563231
H 6.116375012 1.226283042 0.568030508
H 2.429675850 -3.315204120 0.741239668
H -1.009109839 2.182044665 -0.886418236
H -4.261077770 -2.355861050 -0.673070500
H -7.278540384 0.530282171 -1.767369911

