14

C -2.236117515 0.874920217 -1.891648713
C -0.084069871 0.594174510 -0.014374750
O -0.118830911 2.666240800 1.738782304
C -0.043289374 -1.779794028 1.581692149
C 2.451501148 -0.090607606 -1.198999592
O 2.703689786 -2.144119827 1.488217224
H -4.030420577 1.143879645 -0.909669068
H -2.354441110 -0.771550818 -3.122079931
H -1.911155033 2.524514024 -3.091543355
H 0.406266248 4.159651426 0.855648374
H -0.619409062 -1.520847276 3.537922782
H -0.999496235 -3.383631122 0.718709559
H 3.872991028 1.312662272 -0.629035308
H 3.101872881 -3.736071262 0.714677526

