8

O 3.389064406 -0.992086865 0.904750696
C 2.082017323 0.651086447 0.365583260
C 0.476026905 2.512210886 -0.397700063
H 1.266725241 4.150471968 -1.328733070
C -2.183910486 1.380397086 -1.066218572
H -2.269241920 -0.687486862 -0.798026713
N -1.790135630 2.702388615 1.238341082
H -1.623959729 1.644085048 2.854488551

