17

C -3.829900000 -1.802409704 0.335074766
C -1.936653126 -1.700395371 -1.304889243
O -0.699613971 3.636984342 0.950211781
C 1.412362238 3.118053869 -0.588231435
C 2.439077729 0.449062252 -0.394609491
C 1.872179148 -1.189487996 1.839731984
C 0.798824536 -1.864908729 -0.696248879
H -2.077437042 2.583524010 0.409422110
H -3.496705946 -2.018389054 2.345883334
H -5.778157934 -1.694113033 -0.283984263
H -2.378001611 -1.521979052 -3.306132433
H 0.994298449 3.546098096 -2.576372134
H 2.882774992 4.433991244 0.016039088
H 4.316659510 0.281985556 -1.202619400
H 0.596716910 -0.400989547 3.230669150
H 3.356107242 -2.367599746 2.606772215
H 1.724359461 -3.416942931 -1.668641509

