16

C 3.584815731 -0.407584748 -0.376784102
C 0.952320375 -0.609541309 0.741933726
O 0.608806584 1.140162534 2.759986636
C -1.120207405 -0.001692703 -1.181045266
C -3.749953114 -0.532066677 -0.149151000
O -0.895567345 2.527990156 -2.015721516
H 3.879643809 1.466976948 -1.180142242
H 3.849821115 -1.807651445 -1.868530654
H 5.025475899 -0.755379884 1.063063334
H 0.638227616 -2.539959398 1.439802158
H 2.075477321 1.116289719 3.820399704
H -0.792429457 -1.171589795 -2.853731054
H -3.971349156 -2.529093851 0.325660434
H -4.096880526 0.577861752 1.554325173
H -5.165655859 -0.034734376 -1.560483432
H -0.822545626 3.560013075 -0.519581899

