16

C 2.139436481 3.493256459 -1.006880302
O 1.761878329 -0.046269869 0.914079273
C 0.264931496 -1.347821326 -0.761166565
C -0.649849338 -3.856765934 0.297666201
C -2.018000753 0.463575027 -1.360036969
O -1.413993979 2.770307450 -0.097916650
H 2.905826759 2.265624398 -2.445765565
H 1.256867692 5.195808896 -1.722544360
H 3.356085775 3.774151983 0.605270982
H 1.280184040 -1.732307252 -2.549488795
H 0.950439039 -5.096882886 0.681298368
H -1.915923473 -4.810877410 -1.031176322
H -1.664745612 -3.549330453 2.069831651
H -2.289630591 0.862905508 -3.362690481
H -3.784561785 -0.253580837 -0.563030028
H -0.457247846 2.007409140 1.367819220

