8

C -2.867661076 1.570486924 0.015281157
C -2.928091834 -0.617959416 -1.852210242
H -3.566334663 0.001826666 -3.713730541
H -4.207649411 -2.108627785 -1.222177026
H -1.058676165 -1.459770950 -2.083447260
H -4.737417066 2.411159142 0.247803869
H -2.227783445 0.950948339 1.876329421
H -1.589380897 3.061911977 -0.615555174

