12

C -4.049862042 0.243732170 0.141556719
C -1.414204853 -0.675203453 -0.451510392
C 0.674381611 0.874736516 0.512247172
C 2.997480536 0.109752761 -0.123777193
C 4.741208613 -1.109671331 -1.436956362
O -1.043635097 -2.580496159 -1.674974360
H -4.366283170 2.079806646 -0.748066832
H -4.282504392 0.496023647 2.176860806
H -5.431105971 -1.107933463 -0.556682816
H 0.352383618 2.530859044 1.658008587
H 4.861451659 1.203551111 0.351729602
H 5.849961386 -2.567416457 -0.483209036

