15

C -4.766698939 1.586555737 0.652413148
C -2.553058847 0.466712502 0.961479878
C -1.557664640 -1.573402053 -0.737898424
O 0.804095511 -0.982185985 -1.831683168
C 2.853824804 -1.169916537 -0.157182222
C 4.106940067 1.139361725 0.816062542
C 5.271774733 -0.070202154 -0.960901225
H -5.433020849 3.027789249 1.944643493
H 4.011373007 2.754840515 2.048706421
H -6.003376798 1.097430611 -0.909063032
H -1.352262107 1.002319807 2.539583342
H -2.863376197 -1.888336855 -2.302759709
H -1.411609938 -3.354956040 0.324671653
H 2.767989834 -2.905923665 0.958049817
H 6.830516480 -0.197003571 -2.261219409

