15

C -2.402262860 2.138155077 0.771274578
C -1.841377935 -0.388390327 1.183068747
C -1.873766008 -2.241405649 -1.012999443
O 0.755064602 -2.881334567 -1.091687885
C 1.602793587 -1.155710880 0.686876764
C 2.529139298 1.407079036 -0.179580069
C 4.780360828 1.139367753 -0.809688798
H -2.791110538 3.404224677 2.331807067
H 0.848883702 2.845561900 -0.081466301
H -2.980561799 2.783622007 -1.084683180
H -2.176155239 -1.170829067 3.051866627
H -2.476426069 -1.363754419 -2.785251140
H -2.992513807 -3.945343236 -0.686544569
H 2.720777162 -2.024880698 2.180698368
H 6.694492652 1.097602690 -1.446639735

