13

C 4.635115552 0.541451302 1.395026363
N 2.941908396 -0.988805185 -0.034405488
C 0.885549359 -1.544425049 -0.595089988
C -2.965715336 -1.458807946 -0.084725361
C -3.714126779 1.027814783 0.821175990
O -1.327564596 1.289375064 1.857520410
H 3.506501001 1.824367206 2.545359782
H 5.848037418 1.599738353 0.114330698
H 5.803940980 -0.661338362 2.586047890
H -2.993573584 -2.975204180 1.284472301
H -3.161452601 -2.050841207 -2.029573984
H -4.173669830 2.384305945 -0.686294596
H -5.284951850 1.012367405 2.190393362

