18

C 5.272306540 -0.111641391 0.492847376
N 2.617150175 -0.422807871 -0.069026688
C 1.185361080 1.545374731 0.099061730
O 1.411677798 3.826650805 0.631466876
C -1.569960616 1.029897261 -0.501338728
C -2.105282081 -2.709478773 -1.694431962
C -3.395379871 1.140500002 1.633266177
H 6.418496224 -0.698112943 -1.123130376
H 5.808903835 -1.306485305 2.091450609
H 5.740317907 1.849310703 0.954545206
H -0.272555709 -1.634749215 -1.006384400
H -2.187420048 1.846463869 -2.281320218
H -2.534373424 -3.969920901 -0.130011381
H -1.131942887 -3.681900580 -3.230715523
H -3.824644879 -1.889764108 -2.449493484
H -5.337049426 0.752332152 1.075407800
H -2.818536077 -0.102181082 3.171127111
H -3.278071947 3.084806160 2.321539372

