12

N -3.769312489 0.394505689 -0.460333032
C -1.159079487 0.195484325 -0.280109833
C 0.570171908 2.195014309 -0.386103853
N 2.975326162 1.379911370 -0.333077873
C 2.782959110 -1.298749674 -0.005513106
C 0.241971985 -2.017070762 -0.018734934
H -4.485392079 2.075548167 0.062355028
H -4.736839018 -1.054008390 0.299146707
H 0.161906727 4.196451423 -0.429135884
H 3.453205547 0.264462787 1.743201466
H 4.445786669 -2.441696096 -0.316763509
H -0.476621319 -3.920706726 0.136924963

