10

O -4.231453290 0.562444005 -1.122483636
C -2.944731534 -1.554588903 -1.222561982
C -0.366550365 -0.971086225 -0.345490407
N 1.252491162 -2.847776036 -0.291991448
O 3.452378905 -1.874673776 0.571597858
C 3.159693606 0.602359273 1.042117931
C 0.781634094 1.317341026 0.504918569
H -5.926338598 0.218358194 -1.688593937
H 4.808534792 1.568955565 1.746077459
H -0.065312620 3.157767560 0.669134219

