13

N 4.211815407 -0.217597296 0.847634178
C 1.670932557 -0.155577750 0.298345274
O 0.726588829 2.228532287 0.187791723
C -0.026302285 -1.982689501 -0.079204488
C -2.542394915 -0.767538230 -0.627212308
C -1.979558130 1.992018700 0.076418068
H 5.108946444 -1.791703631 0.277364363
H 5.131294232 1.381487042 0.382971311
H 0.363348772 -3.981851687 -0.111109868
H -3.094937360 -0.961184929 -2.613481404
H -4.092890369 -1.514144248 0.512409764
H -2.723335794 2.462977549 1.945541472
H -2.670446366 3.369273607 -1.288271823

