13

N 4.298687383 -0.374997800 0.389692915
C 1.823445493 0.354244318 0.183318854
O 1.324510080 2.657951214 -0.097011547
C -0.117684074 -1.452526061 0.294515007
C -2.584920423 -0.741949392 -0.950719947
C -2.718797995 1.630759512 0.378583121
H 4.798158646 -2.119563176 -0.155031601
H 5.584080113 1.000816265 0.154580258
H 0.098050575 -3.275106192 1.193636341
H -2.600620268 -0.615875558 -3.007604442
H -4.008472013 -2.082188079 -0.296315822
H -3.106093849 1.581156355 2.384094126
H -2.749270452 3.451430735 -0.537981614

