12

C -3.690767931 1.375444322 0.005684561
C -0.921017969 1.059173843 0.108936210
O 0.149396135 -0.275676800 -1.572314100
C 2.593504561 -1.044580924 -1.492747087
C 3.695223206 -1.618237733 0.871638575
O 5.857480814 -2.305506388 1.256767839
H -4.206688675 3.355632581 0.272044085
H -4.422151865 0.697931000 -1.795007987
H -4.601978070 0.300611282 1.521073836
H 0.248431692 1.927830732 1.552346101
H 3.257034816 -1.731786481 -3.290020893
H 2.310792821 -1.515908893 2.472299852

