14

C -0.450590190 -1.544548240 -2.834716214
C 1.049973768 -0.451625968 -1.150035692
C 3.794233592 -1.117122275 -0.885569957
H 4.248836937 -1.691843075 1.047092162
H 4.979307415 0.521852518 -1.312195359
H 4.325600768 -2.650630547 -2.152021471
C 0.045859099 1.533068192 0.636514088
C -0.530044330 0.460306425 3.219707888
O -2.352198780 1.017172847 4.445511091
H 0.862047723 -0.923291120 3.961957312
H 1.467324885 3.017566133 0.910406741
H -1.667342190 2.424717587 -0.078338956
H 0.246129118 -2.990214898 -4.107005168
H -2.424737543 -1.026379951 -3.006605627

