16

C -1.463526951 -0.475427560 -2.212543805
C 0.608952263 0.142745603 -0.743851496
C 2.848014463 -1.605350197 -0.565290556
C 0.638495825 2.573991740 0.708320034
C -0.723674493 0.971750690 2.565860664
O -3.097149379 0.879272256 2.744642645
H -1.360537633 -2.149665115 -3.392163954
H -3.604936722 -1.439728213 -0.529764952
H -2.688502869 1.003303183 -2.925299499
H 3.736173496 -1.555686248 1.295312734
H 4.293630344 -1.062715492 -1.940154260
H 2.311554702 -3.558375136 -0.955587844
H 2.506471958 3.205788203 1.279005192
H -0.509937133 4.083771571 -0.077820679
H 0.426084411 -0.261816925 3.765667226
H -3.955329551 -0.739034698 0.974236984

