11

C -2.265511695 -2.772383352 0.301978518
C -0.267228949 -3.207323038 -1.635596965
C 2.173723143 -2.637429260 -1.392909530
C 3.258176835 -1.499617148 0.801736698
C 4.210439819 -0.540794641 2.622424570
H 5.049875174 0.308458654 4.240463031
H 3.468724242 -3.040924943 -2.928926658
H -0.865616887 -4.065934371 -3.401055569
H -3.736708043 -1.527597624 -0.441926476
H -3.184782310 -4.552157028 0.805930983
H -1.492179489 -1.925829890 2.011811654

