12

C -3.164373494 -0.915550632 -0.817043650
C -1.459802187 -0.455302846 1.414428597
O -1.063754596 -2.012359599 3.056432206
C -0.575962709 2.167586522 1.790325812
C 3.522108004 0.758176074 0.498018990
O 1.749004211 2.677573979 1.362277202
H -2.634377183 0.249715062 -2.437302691
H -3.105255170 -2.912897132 -1.308629237
H -5.096968585 -0.414423742 -0.296884818
H 3.848750642 -0.582330595 2.020384000
H 2.753388525 -0.199331090 -1.155097531
H 5.246275808 1.760929289 0.014089533

