12

C -3.489714243 -0.708566643 -0.566498658
C -1.066389082 -0.957085905 0.922303909
O -0.411096199 -2.892051620 1.949952036
C 0.210561146 1.549763393 1.254481479
C 3.560067991 0.931775046 0.560692059
O 1.652742450 2.254413409 -0.812312759
H -3.258225401 0.570817363 -2.167463822
H -4.068042700 -2.574298103 -1.209189959
H -4.957801689 0.066730595 0.658237397
H 2.724028190 0.601987280 2.557361205
H 4.006492998 -0.896690277 -0.252311054
H 5.150681934 2.172613439 0.944660295

