15

C 3.730507246 -0.712459044 0.938565550
C 1.743053123 1.276841795 0.609358535
O 1.270048986 2.138568511 -1.899078001
C -0.631100193 0.748187378 -0.661074556
C -3.348424580 1.591834460 -0.374719973
O -4.054957254 -0.464604531 -1.809515490
C -1.847073778 -1.605251062 -1.631358800
H 3.511355046 -1.633558990 2.770766805
H 3.582657569 -2.139218879 -0.540760267
H 5.612233688 0.126236011 0.853819913
H 1.710227900 2.782726731 2.008066652
H -3.243149884 -0.596111385 2.278122045
H -4.217709066 3.383004716 -0.840081301
H -1.458672774 -3.437410101 -2.427221966
H -2.604906129 -1.977662829 1.994914252

