15

C -2.496722955 -0.669205670 -1.379480701
O -2.441852698 -2.814330208 0.484375999
C -0.044525878 -1.495467574 1.545035242
C 2.380021709 -1.452766624 0.107249214
C 2.833499571 0.933466861 -0.577028685
C 0.678247518 2.737318010 0.037135424
C -1.423496618 0.916781619 0.790406411
H -1.245730988 -1.206130303 -2.934673391
H -4.420383799 -0.360156099 -2.043263065
H 0.134789497 -2.138901519 3.495850392
H 3.689805286 -3.012472849 -0.082170772
H 4.576382694 1.541974452 -1.472278858
H 1.228683240 4.019799542 1.563147246
H 0.197673460 3.933033372 -1.580201703
H -3.311961426 -1.264879073 1.750196722

