14

O 3.613803903 0.596315400 -0.972678980
C 3.196220142 0.419671360 1.681257926
C 1.133907692 0.183774184 -0.121582333
C -0.470664335 -2.118138701 -0.744622126
C -2.818702505 -0.400651569 -0.415636549
C -1.086157129 1.954730568 -0.568158764
H 3.440736189 2.172955574 2.722803704
H 3.966334862 -1.261679256 2.574712009
H -0.193258114 -2.690583628 -2.706250497
H -0.298383314 -3.768249102 0.475288457
H -4.289715852 -0.564941978 -1.843966633
H -3.674423350 -0.608138755 1.446086801
H -1.016213130 2.752655764 -2.468326721
H -1.393472800 3.468727814 0.793446451

