17

C 3.483699623 0.951847622 -1.618486685
C 0.539382846 0.199585201 0.253138528
C 0.229300294 -2.603049152 0.689537857
C -2.613535696 -2.137350809 0.033794936
C -2.018902643 0.580621545 -0.927566380
C -2.179894762 2.624973811 1.106795414
O 0.420277414 2.037139729 2.061544616
H 4.637157892 0.629321810 0.046464057
H 3.964005472 -0.384069657 -3.108100134
H 3.656488904 2.919119414 -2.206605379
H 1.230319251 -3.772890062 -0.676953642
H 0.701421362 -3.219166273 2.596156413
H -3.821515191 -2.178417033 1.713739975
H -3.397375913 -3.445658037 -1.351906933
H 0.994265530 0.915747485 -1.981943304
H -3.573358038 2.322286362 2.605128928
H -2.218620768 4.600413264 0.506452403

