12

C 3.036060769 -1.158874659 0.045094194
N 1.473160397 1.097833784 -0.008135422
C -0.937389876 1.109027426 -0.610901270
N -2.369904342 -0.829281063 -1.224099407
C -3.886189310 1.179223967 0.355130183
O -4.342846787 0.861276186 2.591897292
H 2.548552701 -2.368545308 1.646401644
H 5.011193860 -0.611932796 0.207636455
H 2.806669050 -2.228141378 -1.703303830
H 2.231582418 2.737028995 0.573886070
H -1.960966267 -2.628958336 -0.672600091
H -5.063503727 2.223790133 -0.980444545

