16

C 3.628821745 0.813914396 0.433831116
C 0.780658504 0.794091150 0.074288573
C -0.138799344 -0.897444902 -2.118578232
C -4.097428641 0.007364508 -0.176851871
O -3.115595865 -0.689353193 1.997466762
C -0.542498777 -0.823779409 2.010548920
H 4.558292629 1.671204564 -1.195328610
H 4.168878146 1.876037591 2.119686179
H 4.356340546 -1.109563069 0.635957583
H 0.083339794 2.742161624 -0.008745331
H -1.021399559 -0.096046370 -3.790318949
H 1.403336868 -2.131886421 -2.720396590
H -6.041416475 -0.595421521 -0.412228787
H -3.534075866 1.785073564 -1.011463436
H 0.185112582 -1.157722777 3.904766470
H -0.651027525 -2.487595711 -0.081138547

