8

C -0.567876193 -1.355029497 0.021437941
H -1.099768259 -1.978500998 1.914455931
H -2.055028670 -1.856565475 -1.317035023
C 0.060646281 1.370073758 -0.063089981
N 2.554561142 1.446262451 -0.802560619
C 3.311933099 -0.891943304 -1.115542918
H 5.201424444 -1.438283914 -1.697402933
O 1.732753208 -2.724139967 -0.711949461

