16

C -2.494597203 1.441494313 -1.550628170
C -1.057214235 -0.299055320 0.223201127
C -2.322792846 -0.804882374 2.704064235
C 2.436454997 -0.246916132 0.843582227
O 1.414524690 1.963507476 0.783389574
C 4.401441090 -0.631126819 -1.195795013
H -1.400732278 1.884466223 -3.235892976
H -3.022678768 3.199229341 -0.619893796
H -4.214088974 0.453846566 -2.134090351
H -0.578197877 -2.017054170 -0.825564992
H -2.261468002 0.888409686 3.873974555
H -1.418036859 -2.348130597 3.710935712
H -4.309041363 -1.262403475 2.354411385
H 6.205590986 -0.158426853 -0.299081530
H 4.524501794 -2.607252092 -1.771554256
H 4.145312770 0.613951458 -2.830561330

