16

C -3.473207561 1.715724017 0.031509067
C -2.407201678 -0.847847320 0.750330781
C 0.326241732 -0.957314846 1.551212416
C 1.842689405 0.605453624 -1.704971286
C 4.447373718 -0.022170021 -1.056900540
O 2.849127719 -2.066103807 -0.390360291
H -2.625708839 2.424895996 -1.702239064
H -3.112557884 3.106182307 1.514141791
H -5.515935739 1.588597341 -0.231191589
H -2.710093255 -2.226441777 -0.760689145
H -3.454830844 -1.602905194 2.377201066
H 0.617442046 -2.694378293 2.629682460
H 0.991712453 0.669431643 2.604641926
H 1.406839778 0.013425843 -3.644257387
H 5.715905669 -0.630837087 -2.553433466
H 5.394283127 0.900554484 0.522327368

