14

O 2.367888628 -2.688035521 0.803192978
C 1.777443587 -0.234502105 1.811889099
C 2.290544765 1.004559756 -0.700754742
C -0.253000785 1.291883354 -1.808176846
C -2.245287581 -0.115991862 -0.236451225
C -1.033611347 -0.187631984 2.387645526
H 4.095331253 -2.637484818 0.225880343
H 3.007261910 0.257783342 3.392237445
H -1.462322534 1.534377470 3.447169119
H -0.349295786 1.061850470 -3.853147354
H -0.409151803 3.360739622 -1.485403800
H -4.090761441 0.799858632 -0.254391832
H -2.482062063 -2.024614624 -0.977774003
H -1.614500176 -1.797741759 3.536606266

