19

C -2.401669807 -2.574692488 2.328284561
O -0.375471592 0.683901314 2.214865239
C -0.360556135 1.561907737 -0.355676314
C 0.009084594 4.400624766 -0.356375437
C 1.692284572 0.136836524 -1.805268066
C 1.554698734 -2.714915723 -1.312360880
O 1.366285745 -3.221414688 1.268794019
H -3.846600700 -1.158259062 2.620242315
H -1.861166335 -3.596437225 4.008813449
H -2.673661508 -3.724446914 0.661480092
H -2.217712471 1.132298685 -1.180429896
H 1.821593655 4.883120393 0.502959490
H -1.484613895 5.323486616 0.723137660
H -0.020008212 5.138691111 -2.283793170
H 3.533605211 0.831230977 -1.164400445
H 1.545007482 0.549056675 -3.823859698
H -0.066662376 -3.527288178 -2.353946021
H 3.241217714 -3.636370502 -2.093596109
H 0.930206611 -0.842519124 2.193939603

