8

N -2.433531723 -0.952213851 0.802182164
C -0.598545673 0.327906109 0.011694362
O -0.808179625 2.740462288 -0.731992198
C 2.097486659 -0.606408257 -0.228586110
O 2.668953313 -2.721173248 0.329092687
H -2.554353952 3.227871920 -0.534670700
H -1.840264584 -2.723320110 1.260699452
H 3.477887978 0.785871371 -0.943232172

