8

N -2.190276728 -0.255381765 0.629811343
C -0.226853533 1.035961108 -0.331334488
O -0.259905032 3.179780280 -1.126867083
C 2.245241453 -0.473322688 -0.365922145
O 2.406686916 -2.599696494 0.392272221
H -3.900598755 0.558218030 0.731353792
H -1.928685474 -2.038955548 1.229150324
H 3.854391153 0.593397077 -1.158463984

