17

C 1.148558115 -2.365317297 -1.150328600
C 0.405397276 0.282113585 -0.517229908
C 0.774843137 2.351271321 -1.880130983
H 1.672036006 2.553315547 -3.705423249
O -0.067817584 4.547909075 -0.835468196
C -1.491331795 3.844949098 1.369342944
H -1.005237355 5.152275615 2.883066104
H -3.497732861 4.061649058 0.919807505
C -0.827873803 1.078471707 1.935789975
H 0.479727216 0.892560356 3.528444955
H -2.505533652 -0.037478919 2.387511128
C 3.065294039 -3.488329962 0.696619039
H 2.316256038 -3.536401023 2.619202417
H 3.554799567 -5.422033812 0.171239026
H 4.799537882 -2.370765661 0.722893356
H 1.922199896 -2.408626002 -3.065433104
H -0.540643161 -3.563699912 -1.179426470

