14

O 5.147196126 0.607043375 -0.603540087
C 3.077937761 1.109863667 -1.387810746
C 0.714032657 0.043647779 -0.283283684
C -1.537968630 -1.129810955 -1.676839217
N -2.736957526 -0.913624226 0.893768250
C -1.311894401 1.560745574 1.140584813
C 0.869217382 -2.070255705 1.718175785
H 2.822493352 2.450879371 -2.981557477
H -2.537724192 0.059596595 -3.030539745
H -1.315680354 -3.061766468 -2.349595040
H -2.324497001 3.053009534 0.122116993
H -0.882203183 2.153827955 3.061965853
H 1.363644872 -1.224103545 3.555063694
H -1.542748862 -2.640562842 1.802595237

