10

C 5.130601987 2.444819946 0.842656847
C 2.942460820 1.578416120 0.512572451
C 0.609430137 0.600004202 0.146717089
C -1.732685651 1.800558112 0.129812412
O -3.533284354 0.110496406 -0.304206033
N -2.787985706 -2.189017660 -0.605948864
C -0.084700341 -2.095707652 -0.346579721
H 0.785093465 -2.851642586 -2.069818026
H -2.331359239 3.726406163 0.386205256
H 0.488217396 -3.368262717 1.186791999

