10

C 3.834905601 0.628508547 -0.746155601
C 2.910072388 1.806739577 1.138911026
C 0.408205447 0.844842825 0.757587915
C -1.852427334 1.880465333 -0.020043588
O -3.364937479 0.038905171 -0.843562668
N -2.372470175 -2.236072464 -0.677944028
C 0.001729345 -1.863002449 0.263006167
H 1.933474210 -1.699619563 -1.227724468
H -2.586568170 3.773026235 -0.140907391
H 0.751244256 -3.387772551 1.415357076

