11

C -2.457189337 0.122330117 -1.279435425
C -0.727696908 0.075113892 -3.533623787
H 1.237902174 -0.100446408 -2.930265605
H -0.882741604 1.832918198 -4.602581025
H -1.183785483 -1.501989907 -4.776340152
C -4.265585977 -1.580099601 -0.884542286
H -4.575273443 -3.107083159 -2.212408085
H -5.471836089 -1.489918847 0.764183551
C -2.059174068 2.146208466 0.484588442
C -1.669316444 3.862212654 1.912501879
H -1.338710805 5.374884446 3.195855273

