17

C 3.670896837 0.101100234 -0.242906605
C 1.925354926 -0.845994576 1.594587243
C -1.076628506 -0.323700391 0.210742730
C -0.455429249 -0.592962421 -2.564790890
C -3.042919417 -2.079123018 0.444954044
C -1.756522032 2.258211475 0.891442432
C -2.258321589 4.390821245 1.459527705
H 5.031562991 -1.161626422 -1.107536300
H 4.252994486 2.063486026 -0.135543460
H 1.843820387 0.192481985 -2.336883778
H 2.017797116 -2.872014098 1.924940963
H 1.779099422 0.194933489 3.354609256
H -1.637232088 0.475235129 -3.864401882
H -0.160790125 -2.534687704 -3.178179304
H -2.708727871 -4.025996332 -0.084340027
H -4.848211973 -1.617536172 1.291302036
H -2.721753300 6.282369330 1.960824859

