15

C -2.139719373 2.489192113 -0.322811048
C -0.457782809 0.657007941 0.425604496
C 0.072488382 -0.811634215 2.842656125
O 2.759289421 -0.962352383 2.204175267
C 2.342466615 0.272980217 -0.161511793
C 0.782319120 -1.285498612 -1.852170879
O 0.868321293 -3.771945331 -1.489242155
H -3.933806043 2.685409388 0.650510213
H -1.555360724 4.088410206 -1.444423502
H -2.418282181 1.287209078 -3.749818925
H -0.786189714 -2.680056909 3.017404127
H -0.175398162 0.259693817 4.585695907
H 3.651847170 1.747277813 -0.719491868
H -1.172908068 0.208548720 -3.759983440
H 2.287911337 -4.216495692 -0.415644467

