14

C -3.382213639 0.237580998 0.076033150
N -0.666277615 0.000397825 0.012766593
C 0.684637552 -2.365056930 -0.257070802
C 3.387769452 -1.470115859 -0.197409125
C 3.665665376 1.061636137 0.071570656
C 1.047795688 1.810112832 0.186613648
O 0.289347211 4.163575537 0.450110559
H -3.882898030 2.226069596 0.208673215
H -4.161781450 -0.757263147 1.707305627
H -4.212267940 -0.548572187 -1.641235586
H 0.212268910 -3.650467254 1.295199748
H 4.900190270 -2.845722697 -0.370327361
H 0.166994455 -3.292233252 -2.033917273
H 1.842526227 5.129697791 0.530806173

