14

C -3.344559901 0.184571440 0.967226421
N -0.707044941 -0.225236854 0.335598409
C 0.356896548 -2.443737869 -0.218760800
C 2.893704393 -1.915593414 -0.905386249
C 3.433782602 0.864511870 -0.546519170
C 1.043981805 1.672933304 0.085539417
O 0.188794298 4.041333236 0.578247086
H -4.241730150 1.328613942 -0.489688869
H -3.470315297 1.182544103 2.760953571
H -4.295482351 -1.631913813 1.107675365
H -0.693707254 -4.187972392 -0.119434282
H 4.341641179 -3.351427165 -1.039974906
H 2.831188870 -0.822554394 -2.819630096
H 1.618271559 5.133202572 0.317491809

