13

C 3.000437051 0.798518344 2.409154691
C 2.585283515 -1.181352800 1.036121301
C 1.337640672 -1.690443677 -1.113461536
C 1.204166746 1.455814204 0.274290081
C -1.627640367 1.546970000 0.796474038
O -2.515577925 -0.946818267 1.102066846
C -1.392496549 -2.438546471 -0.834484802
H 4.071669425 1.671852041 3.882625740
H 1.989091817 2.555395815 -1.269707361
H -2.063618609 2.572782523 2.528885905
H -2.570513964 2.478640469 -0.803522924
H -2.400437441 -2.143138833 -2.619506380
H -1.567085681 -4.423825255 -0.305668738

