14

O 3.675415494 -2.231491428 -1.036326317
C 1.961298160 -0.248171042 -1.506083111
C 0.638079594 0.622602246 0.868041765
C -1.595190897 2.337979441 0.669280900
C -1.482763513 -0.957299728 1.989258434
O -2.666305976 -2.535318552 0.340766564
H 2.844209915 -3.510842307 -0.054668832
H 0.599611139 -0.772942053 -2.994108830
H 3.070279476 1.299599257 -2.295263335
H 2.004050398 1.201153540 2.288427742
H -2.595539777 2.373780567 -1.118847709
H -1.562770340 4.097276291 1.718797184
H -2.918897768 0.996365431 2.357188470
H -1.986784556 -2.453957754 -1.352592676

