19

C 5.529771577 0.520473339 0.735808160
C 3.174870224 -0.347955252 -0.563056862
C 1.134652395 1.056262606 -0.944521419
C -1.224537899 0.190125629 -2.247430058
C -3.550734860 0.069329970 -0.515658695
C -3.284759423 -1.874219958 1.581168922
O -4.158213212 2.489408430 0.474264830
H 5.939199469 -0.649509055 2.388596719
H 5.366868454 2.479767218 1.356884263
H 7.165627094 0.376570071 -0.517405728
H -1.676835740 -1.425958326 2.799378374
H 3.173295553 -2.288835451 -1.247843627
H 1.150833761 3.006632291 -0.285225718
H -0.922310409 -1.676212206 -3.083902984
H -1.670609470 1.491648702 -3.790208495
H -5.176213475 -0.429343999 -1.689293929
H -4.993810401 -1.914645527 2.732384445
H -2.972566538 -3.760930665 0.805539262
H -2.976045184 2.879996849 1.793290982

