18

C 4.572018277 -0.330016328 -2.307036027
C 2.553348221 -1.096863656 -0.465669297
C 2.198677222 0.153385744 2.018353073
N 0.473428437 0.644213248 -0.047747143
C -1.987382465 -0.580878057 0.083236880
C -5.622460527 0.332916888 0.765441088
O -3.332712867 1.815057187 1.851523440
H 3.975298873 -0.697617967 -4.247603210
H 6.313935712 -1.381255154 -1.961689749
H 4.973144545 1.683611353 -2.129732870
H 2.041683046 -3.091938478 -0.505156674
H 3.413600837 1.712977735 2.557287487
H 1.503719744 -0.985480666 3.579484114
H -2.518849230 -1.023426990 -1.843866931
H -2.068993878 -2.203199015 1.337904459
H -6.520606252 1.588770534 -0.608384173
H -6.884222742 0.072922490 2.377834654
H -3.090150306 3.398845477 0.986232455

