15

C -3.069084395 2.398123887 -0.015934662
C -1.138098972 1.337618260 1.686732330
C 1.491289503 1.491324803 0.779816934
C 3.213757745 -0.478170459 2.010635262
H 2.909656724 -2.327262521 1.143565780
H 2.793881727 -0.644471933 4.018617310
H 5.204895701 0.006060616 1.765449609
C 2.096063657 1.858877782 -2.028274759
H 1.160457078 3.510134378 -2.830775436
H 4.125859136 2.098781461 -2.304835157
H 1.516700386 0.204492725 -3.120998592
H 1.860040152 3.303447586 1.790813607
H -2.996687343 4.434534201 0.426511035
H -2.755306653 2.216940442 -2.056755710
H -4.973777736 1.796174836 0.486615003

