12

N 4.275494359 -0.673012977 0.356205872
C 2.465704991 -0.972935227 -1.358802959
N 0.483748534 -2.228103848 -0.686913670
C -1.790171611 -1.916570742 -0.015365873
C -2.931599865 0.608838596 0.405132847
C -1.646193680 2.859229553 -0.463473436
N -3.359287878 2.239867488 -1.947892707
H 5.919837297 0.106787724 -0.167876239
H 4.157252456 -1.354873141 2.139512429
H -2.990898885 -3.575143489 0.166484720
H -4.413787502 0.725939765 1.819472324
H -0.167719014 4.258186395 -0.283586248

