10

N -2.920788534 -0.239009310 -0.103059956
C -0.825719043 -0.005271731 -1.423060299
N 0.953620979 -1.921717865 -1.526963148
C 2.381901854 -1.040902308 0.281079829
N 1.682650295 1.281572517 1.264822684
N 0.342387647 2.263461531 -0.914628314
H -1.037393540 0.248403479 1.813307093
H -3.504614677 -2.069064932 -0.049790239
H 3.918410935 -2.100286080 1.115974059
H -0.908084683 3.596849714 -0.354857931

