12

C -4.349873431 0.678707137 -1.107495576
C -2.105632493 0.659674950 -2.837545701
C 0.225538152 0.251230433 -2.111151590
C 2.476066869 -0.144449285 -1.399959909
C 4.821091040 -0.550864652 -0.698917154
O 5.609913539 -1.018909127 1.692502514
H 4.169945690 -1.004734159 2.800608736
H 6.380783621 -0.545619396 -2.024503433
H -2.438571377 1.009171538 -4.833384029
H -5.309310798 2.506626897 -1.172402150
H -5.725910616 -0.752778052 -1.676128604
H -3.795031340 0.306078411 0.839713617

