14

N 5.119400938 0.946216257 0.301358631
C 2.903706562 0.376037131 -0.251596360
O 1.559964286 -1.802007324 0.214722058
C -0.643959383 -0.827941739 -1.097361466
C -2.979076569 -0.709754941 0.570788431
C -3.004120316 0.066975579 3.179651854
C 0.762321226 1.661207932 -1.616772212
H 6.007625167 -0.473763221 1.244901247
H -1.004228317 -1.965837962 -2.780307730
H -3.412815089 -2.658649505 1.349636578
H -4.667190610 -0.225862655 -0.518385078
H -1.045901257 -0.129235157 3.891271331
H 0.017875392 3.320456047 -0.654546762
H 1.146610223 2.102799662 -3.586654888

