17

C -3.770856905 1.086253561 0.346173978
C -2.910350688 -1.550583950 0.559093842
C 0.831920292 -1.884361154 -1.638883236
C 2.433702460 0.530506292 -1.937197764
C 2.705250076 1.526681182 0.707596061
C 1.312963494 0.255148062 2.353978524
C -0.189834460 -1.851316780 1.161824163
H -5.393971719 1.307869851 -0.901954884
H -4.519650243 1.347551511 2.279596523
H -2.364546666 2.581165953 0.052330560
H -0.697343503 -1.989750538 -3.026336560
H 1.952068964 -3.590474440 -1.893981958
H 1.504420927 1.922839040 -3.153371150
H 4.259617541 0.124510785 -2.812268743
H 3.881202568 3.140193012 1.164521350
H 1.198703491 0.670478760 4.356001983
H 0.153183600 -3.672159080 2.066860283

