9

C -3.412405604 0.425116077 -0.177836834
C -0.690748057 0.085466814 -0.029231285
C 1.563776109 -0.158032353 0.064869536
C 4.265916565 -0.534945693 0.230518808
O 5.806205325 0.878943992 -0.659584186
H -3.920580171 2.360342064 0.317784206
H -4.392651785 -0.863957103 1.095773302
H -4.063415630 0.065130450 -2.100925601
H 4.843903228 -2.258064265 1.258632054

