9

C -3.332908152 1.042184052 -0.432169253
C -0.850659516 0.679810303 0.250230712
C 1.566050017 0.808644932 0.138875727
C 3.766652265 -0.718668061 0.172854061
O 5.040825691 -1.269501362 -1.650698031
H -4.821108104 0.776693405 0.944230099
H -1.750738979 -1.183044162 0.993418252
H -3.864513773 1.344269926 -2.390116588
H 4.315696808 -1.299920208 2.115514570

