10

N -1.504577018 2.506283004 -2.136412220
C -0.671081318 0.570269550 -1.127675205
O 1.624093427 -0.542271916 -1.580838068
C 3.192526804 -1.013257788 0.412387317
O 2.838492208 -0.345194589 2.518679286
C -3.511041446 0.080698657 2.150805584
O -2.119393271 -0.984553131 0.387786087
H -0.179969352 3.360168150 -3.228097988
H 4.830968147 -2.067089601 -0.290374126
H -4.485278317 -1.597744617 2.956189095

