13

O 4.698967508 1.741596597 -3.493579451
C 3.591538280 1.525772451 -1.545854438
C 2.071598696 -0.823517379 -0.831896104
O 1.136382648 -0.792682851 1.697202830
C -1.338547306 -1.243896707 0.616504497
C -3.332391255 0.631380836 1.450163847
C -0.454971879 -1.115502175 -2.068702898
H 3.562323927 3.003773135 -0.063894985
H 3.242625012 -2.484010484 -1.278631026
H -1.959837250 -3.194480384 0.992546068
H -5.123234531 0.191956925 0.533158938
H -3.565026689 0.522536674 3.493930222
H -2.785218637 2.554659880 0.953886882

