12

C -3.526723055 -0.696857692 0.091784470
C -0.798017869 0.013228423 0.041619971
C 1.324663469 -1.584912450 -0.222640351
C 3.367388095 0.005409076 -0.159180419
N 2.431835467 2.354689685 0.125132581
N -0.091390784 2.401417510 0.251623836
H -4.678113341 0.975016477 0.429041152
H -4.111020704 -1.539350360 -1.698917681
H -3.911664008 -2.070849741 1.581508260
H 1.345551217 -3.610826072 -0.428376478
H 5.368853423 -0.350187227 -0.292426331
H 3.391953646 3.983785992 0.244850605

