12

C -3.386676284 -0.556532167 -0.037500198
C -0.631390361 0.015135686 0.149381905
C 1.432215890 -1.556201482 -0.259878217
C 3.539055805 -0.045643746 0.066459495
N 2.880064652 2.274113142 0.822878747
N 0.163090130 2.309354021 0.875767419
H -4.473438351 1.191042825 -0.028446671
H -3.813625716 -1.599227352 -1.763022539
H -4.007012521 -1.703563818 1.561380390
H 1.392522268 -3.537673753 -0.740562088
H 5.512067130 -0.513327718 -0.169257024
H 1.506442896 3.603086075 -0.513185384

