28

C    -3.51594  -0.73867   1.28968
N    -2.36289   0.06289   0.91938
C    -1.60580  -0.26193  -0.15020
O    -1.85745  -1.28169  -0.82239
C    -0.51926   0.64073  -0.59366
C    -0.40984   2.07839  -0.51091
C    -1.45012   2.89545   0.21494
O     0.54800   2.65250  -1.07273
N     0.56222   0.08628  -1.21364
C     0.93941  -1.16642  -1.35304
C     2.17738  -1.49901  -1.92133
N     3.20210  -1.82742  -2.38170
C     1.58376  -0.96094   1.41869
C     2.56745  -2.04696   1.23155
C     0.84662  -0.08887   1.70084
F     0.13278   0.86356   2.29940
H    -3.22708  -1.75535   1.60572
H    -4.04287  -0.24860   2.12043
H    -4.21408  -0.83687   0.44141
H    -2.07031   0.79320   1.55851
H    -1.29744   3.95282  -0.02181
H    -1.35874   2.77251   1.31436
H    -2.46093   2.57979  -0.06847
H     1.15196   0.81995  -1.63670
H     0.35437  -1.95563  -0.83036
H     2.87837  -2.18925   2.30409
H     2.14953  -2.96433   0.87243
H     3.43259  -1.75394   0.66614
28

C    -3.51666  -0.73892   1.28980
N    -2.36356   0.06265   0.92026
C    -1.60529  -0.26242  -0.14802
O    -1.85742  -1.27867  -0.82364
C    -0.50856   0.63640  -0.57825
C    -0.40800   2.07924  -0.50708
C    -1.44990   2.89523   0.21601
O     0.54596   2.65152  -1.07306
N     0.55939   0.08562  -1.21924
C     0.94639  -1.16587  -1.33461
C     2.17907  -1.50035  -1.91540
N     3.20082  -1.82730  -2.38166
C     1.57767  -0.95941   1.39489
C     2.56452  -2.04248   1.23638
C     0.83545  -0.08277   1.67518
F     0.13853   0.85672   2.30118
H    -3.22728  -1.75543   1.60574
H    -4.04319  -0.24872   2.12042
H    -4.21417  -0.83687   0.44136
H    -2.06994   0.79233   1.55944
H    -1.29751   3.95282  -0.02129
H    -1.35930   2.77200   1.31468
H    -2.46055   2.57932  -0.06886
H     1.15200   0.81923  -1.63718
H     0.35420  -1.95632  -0.83127
H     2.87518  -2.18506   2.30658
H     2.15013  -2.96423   0.87528
H     3.43296  -1.75403   0.66874
28

C    -3.51737  -0.73917   1.28992
N    -2.36422   0.06240   0.92115
C    -1.60477  -0.26292  -0.14583
O    -1.85738  -1.27565  -0.82489
C    -0.49786   0.63207  -0.56285
C    -0.40617   2.08008  -0.50326
C    -1.44969   2.89501   0.21708
O     0.54392   2.65055  -1.07339
N     0.55657   0.08497  -1.22484
C     0.95338  -1.16531  -1.31617
C     2.18076  -1.50169  -1.90947
N     3.19953  -1.82717  -2.38163
C     1.57158  -0.95789   1.37110
C     2.56160  -2.03800   1.24122
C     0.82427  -0.07666   1.64952
F     0.14429   0.84987   2.30296
H    -3.22749  -1.75551   1.60576
H    -4.04350  -0.24883   2.12040
H    -4.21425  -0.83687   0.44130
H    -2.06957   0.79146   1.56037
H    -1.29758   3.95281  -0.02076
H    -1.35986   2.77149   1.31500
H    -2.46017   2.57884  -0.06925
H     1.15203   0.81851  -1.63765
H     0.35402  -1.95701  -0.83219
H     2.87199  -2.18088   2.30906
H     2.15074  -2.96414   0.87813
H     3.43334  -1.75411   0.67133
28

C    -3.51808  -0.73942   1.29004
N    -2.36488   0.06215   0.92204
C    -1.60425  -0.26341  -0.14364
O    -1.85735  -1.27263  -0.82615
C    -0.48716   0.62774  -0.54744
C    -0.40433   2.08092  -0.49943
C    -1.44948   2.89479   0.21815
O     0.54188   2.64957  -1.07372
N     0.55374   0.08431  -1.23043
C     0.96037  -1.16476  -1.29774
C     2.18245  -1.50303  -1.90354
N     3.19825  -1.82705  -2.38159
C     1.56549  -0.95636   1.34730
C     2.55868  -2.03352   1.24606
C     0.81310  -0.07056   1.62386
F     0.15005   0.84303   2.30474
H    -3.22769  -1.75559   1.60579
H    -4.04382  -0.24895   2.12039
H    -4.21434  -0.83687   0.44124
H    -2.06920   0.79059   1.56129
H    -1.29765   3.95281  -0.02024
H    -1.36042   2.77097   1.31532
H    -2.45978   2.57837  -0.06964
H     1.15207   0.81779  -1.63813
H     0.35385  -1.95770  -0.83310
H     2.86880  -2.17669   2.31155
H     2.15134  -2.96405   0.88098
H     3.43371  -1.75420   0.67392
28

C    -3.51879  -0.73967   1.29016
N    -2.36554   0.06191   0.92293
C    -1.60373  -0.26390  -0.14145
O    -1.85731  -1.26961  -0.82740
C    -0.47645   0.62341  -0.53204
C    -0.40249   2.08176  -0.49561
C    -1.44927   2.89457   0.21922
O     0.53985   2.64860  -1.07406
N     0.55091   0.08366  -1.23603
C     0.96736  -1.16420  -1.27931
C     2.18414  -1.50437  -1.89760
N     3.19696  -1.82692  -2.38155
C     1.55939  -0.95484   1.32350
C     2.55576  -2.02905   1.25089
C     0.80193  -0.06445   1.59820
F     0.15580   0.83619   2.30653
H    -3.22790  -1.75567   1.60581
H    -4.04414  -0.24906   2.12038
H    -4.21442  -0.83687   0.44118
H    -2.06884   0.78972   1.56222
H    -1.29771   3.95280  -0.01971
H    -1.36099   2.77046   1.31565
H    -2.45940   2.57790  -0.07003
H     1.15211   0.81707  -1.63861
H     0.35368  -1.95839  -0.83402
H     2.86561  -2.17251   2.31403
H     2.15195  -2.96396   0.88383
H     3.43409  -1.75429   0.67652
28

C    -3.51950  -0.73992   1.29028
N    -2.36621   0.06166   0.92381
C    -1.60321  -0.26439  -0.13926
O    -1.85727  -1.26659  -0.82865
C    -0.46575   0.61908  -0.51663
C    -0.40066   2.08260  -0.49179
C    -1.44906   2.89436   0.22029
O     0.53781   2.64763  -1.07439
N     0.54809   0.08300  -1.24163
C     0.97434  -1.16365  -1.26087
C     2.18583  -1.50571  -1.89167
N     3.19568  -1.82680  -2.38152
C     1.55330  -0.95331   1.29970
C     2.55283  -2.02457   1.25573
C     0.79075  -0.05835   1.57254
F     0.16156   0.82935   2.30831
H    -3.22810  -1.75575   1.60583
H    -4.04446  -0.24918   2.12036
H    -4.21451  -0.83687   0.44113
H    -2.06847   0.78885   1.56314
H    -1.29778   3.95280  -0.01918
H    -1.36155   2.76995   1.31597
H    -2.45902   2.57743  -0.07042
H     1.15215   0.81635  -1.63909
H     0.35351  -1.95908  -0.83494
H     2.86242  -2.16832   2.31652
H     2.15255  -2.96387   0.88668
H     3.43446  -1.75437   0.67911
28

C    -3.52021  -0.74016   1.29040
N    -2.36687   0.06142   0.92470
C    -1.60269  -0.26488  -0.13707
O    -1.85724  -1.26358  -0.82990
C    -0.45505   0.61475  -0.50123
C    -0.39882   2.08344  -0.48796
C    -1.44885   2.89414   0.22136
O     0.53577   2.64665  -1.07472
N     0.54526   0.08235  -1.24723
C     0.98133  -1.16310  -1.24244
C     2.18753  -1.50705  -1.88574
N     3.19439  -1.82667  -2.38148
C     1.54721  -0.95179   1.27591
C     2.54991  -2.02009   1.26057
C     0.77958  -0.05224   1.54688
F     0.16732   0.82250   2.31009
H    -3.22831  -1.75583   1.60585
H    -4.04478  -0.24929   2.12035
H    -4.21459  -0.83687   0.44107
H    -2.06810   0.78797   1.56407
H    -1.29785   3.95279  -0.01866
H    -1.36211   2.76944   1.31629
H    -2.45863   2.57696  -0.07081
H     1.15218   0.81563  -1.63957
H     0.35333  -1.95977  -0.83585
H     2.85923  -2.16414   2.31900
H     2.15315  -2.96378   0.88953
H     3.43484  -1.75446   0.68170
28

C    -3.52092  -0.74041   1.29051
N    -2.36753   0.06117   0.92559
C    -1.60218  -0.26537  -0.13488
O    -1.85720  -1.26056  -0.83115
C    -0.44435   0.61042  -0.48582
C    -0.39698   2.08428  -0.48414
C    -1.44863   2.89392   0.22243
O     0.53373   2.64568  -1.07505
N     0.54244   0.08169  -1.25283
C     0.98832  -1.16254  -1.22401
C     2.18922  -1.50839  -1.87981
N     3.19311  -1.82655  -2.38144
C     1.54112  -0.95026   1.25211
C     2.54699  -2.01561   1.26540
C     0.76840  -0.04614   1.52122
F     0.17307   0.81566   2.31188
H    -3.22851  -1.75591   1.60587
H    -4.04509  -0.24941   2.12033
H    -4.21468  -0.83688   0.44101
H    -2.06774   0.78710   1.56500
H    -1.29791   3.95279  -0.01813
H    -1.36267   2.76893   1.31661
H    -2.45825   2.57649  -0.07120
H     1.15222   0.81491  -1.64004
H     0.35316  -1.96046  -0.83677
H     2.85604  -2.15995   2.32149
H     2.15376  -2.96369   0.89238
H     3.43521  -1.75454   0.68430
28

C    -3.52163  -0.74066   1.29063
N    -2.36819   0.06092   0.92648
C    -1.60166  -0.26586  -0.13269
O    -1.85716  -1.25754  -0.83240
C    -0.43365   0.60609  -0.47042
C    -0.39515   2.08512  -0.48031
C    -1.44842   2.89370   0.22350
O     0.53169   2.64470  -1.07538
N     0.53961   0.08104  -1.25843
C     0.99530  -1.16199  -1.20557
C     2.19091  -1.50974  -1.87388
N     3.19182  -1.82642  -2.38141
C     1.53502  -0.94874   1.22831
C     2.54407  -2.01113   1.27024
C     0.75723  -0.04003   1.49556
F     0.17883   0.80882   2.31366
H    -3.22872  -1.75599   1.60590
H    -4.04541  -0.24953   2.12032
H    -4.21477  -0.83688   0.44095
H    -2.06737   0.78623   1.56592
H    -1.29798   3.95278  -0.01760
H    -1.36324   2.76842   1.31693
H    -2.45787   2.57602  -0.07159
H     1.15226   0.81419  -1.64052
H     0.35299  -1.96115  -0.83768
H     2.85284  -2.15577   2.32397
H     2.15436  -2.96359   0.89523
H     3.43559  -1.75463   0.68689
28

C    -3.52235  -0.74091   1.29075
N    -2.36886   0.06068   0.92736
C    -1.60114  -0.26635  -0.13050
O    -1.85713  -1.25452  -0.83365
C    -0.42294   0.60176  -0.45501
C    -0.39331   2.08597  -0.47649
C    -1.44821   2.89348   0.22457
O     0.52966   2.64373  -1.07571
N     0.53678   0.08038  -1.26402
C     1.00229  -1.16143  -1.18714
C     2.19260  -1.51108  -1.86795
N     3.19054  -1.82630  -2.38137
C     1.52893  -0.94721   1.20451
C     2.54114  -2.00666   1.27508
C     0.74606  -0.03393   1.46990
F     0.18459   0.80197   2.31544
H    -3.22892  -1.75607   1.60592
H    -4.04573  -0.24964   2.12031
H    -4.21485  -0.83688   0.44090
H    -2.06700   0.78536   1.56685
H    -1.29805   3.95277  -0.01708
H    -1.36380   2.76791   1.31725
H    -2.45748   2.57554  -0.07198
H     1.15230   0.81347  -1.64100
H     0.35282  -1.96185  -0.83860
H     2.84965  -2.15158   2.32646
H     2.15497  -2.96350   0.89808
H     3.43596  -1.75472   0.68948
28

C    -3.52306  -0.74116   1.29087
N    -2.36952   0.06043   0.92825
C    -1.60062  -0.26684  -0.12831
O    -1.85709  -1.25150  -0.83491
C    -0.41224   0.59743  -0.43960
C    -0.39147   2.08681  -0.47267
C    -1.44800   2.89326   0.22564
O     0.52762   2.64276  -1.07604
N     0.53396   0.07973  -1.26962
C     1.00928  -1.16088  -1.16871
C     2.19429  -1.51242  -1.86202
N     3.18925  -1.82617  -2.38133
C     1.52284  -0.94569   1.18071
C     2.53822  -2.00218   1.27991
C     0.73488  -0.02782   1.44424
F     0.19034   0.79513   2.31722
H    -3.22913  -1.75615   1.60594
H    -4.04605  -0.24976   2.12029
H    -4.21494  -0.83688   0.44084
H    -2.06663   0.78449   1.56777
H    -1.29811   3.95277  -0.01655
H    -1.36436   2.76740   1.31757
H    -2.45710   2.57507  -0.07237
H     1.15234   0.81275  -1.64148
H     0.35264  -1.96254  -0.83951
H     2.84646  -2.14740   2.32894
H     2.15557  -2.96341   0.90093
H     3.43634  -1.75480   0.69208
28

C    -3.52377  -0.74141   1.29099
N    -2.37018   0.06019   0.92914
C    -1.60010  -0.26733  -0.12612
O    -1.85706  -1.24848  -0.83616
C    -0.40154   0.59310  -0.42420
C    -0.38963   2.08765  -0.46884
C    -1.44779   2.89304   0.22671
O     0.52558   2.64178  -1.07637
N     0.53113   0.07907  -1.27522
C     1.01627  -1.16033  -1.15027
C     2.19598  -1.51376  -1.85608
N     3.18797  -1.82605  -2.38130
C     1.51675  -0.94417   1.15692
C     2.53530  -1.99770   1.28475
C     0.72371  -0.02172   1.41858
F     0.19610   0.78829   2.31901
H    -3.22933  -1.75623   1.60596
H    -4.04637  -0.24987   2.12028
H    -4.21502  -0.83688   0.44078
H    -2.06627   0.78361   1.56870
H    -1.29818   3.95276  -0.01602
H    -1.36493   2.76688   1.31789
H    -2.45672   2.57460  -0.07276
H     1.15237   0.81203  -1.64196
H     0.35247  -1.96323  -0.84043
H     2.84327  -2.14321   2.33143
H     2.15617  -2.96332   0.90379
H     3.43671  -1.75489   0.69467
28

C    -3.52448  -0.74166   1.29111
N    -2.37084   0.05994   0.93003
C    -1.59959  -0.26782  -0.12393
O    -1.85702  -1.24546  -0.83741
C    -0.39084   0.58877  -0.40879
C    -0.38780   2.08849  -0.46502
C    -1.44758   2.89283   0.22778
O     0.52354   2.64081  -1.07670
N     0.52830   0.07842  -1.28082
C     1.02325  -1.15977  -1.13184
C     2.19767  -1.51510  -1.85015
N     3.18668  -1.82592  -2.38126
C     1.51065  -0.94264   1.13312
C     2.53238  -1.99322   1.28959
C     0.71253  -0.01561   1.39292
F     0.20185   0.78145   2.32079
H    -3.22954  -1.75632   1.60598
H    -4.04668  -0.24999   2.12026
H    -4.21511  -0.83688   0.44073
H    -2.06590   0.78274   1.56963
H    -1.29825   3.95276  -0.01550
H    -1.36549   2.76637   1.31821
H    -2.45633   2.57413  -0.07315
H     1.15241   0.81131  -1.64243
H     0.35230  -1.96392  -0.84134
H     2.84008  -2.13903   2.33391
H     2.15678  -2.96323   0.90664
H     3.43709  -1.75497   0.69726
28

C    -3.52519  -0.74190   1.29123
N    -2.37150   0.05969   0.93091
C    -1.59907  -0.26832  -0.12174
O    -1.85698  -1.24244  -0.83866
C    -0.38014   0.58444  -0.39339
C    -0.38596   2.08933  -0.46119
C    -1.44736   2.89261   0.22885
O     0.52150   2.63983  -1.07703
N     0.52548   0.07776  -1.28642
C     1.03024  -1.15922  -1.11341
C     2.19937  -1.51644  -1.84422
N     3.18540  -1.82580  -2.38122
C     1.50456  -0.94112   1.10932
C     2.52945  -1.98874   1.29442
C     0.70136  -0.00951   1.36726
F     0.20761   0.77460   2.32257
H    -3.22974  -1.75640   1.60601
H    -4.04700  -0.25010   2.12025
H    -4.21519  -0.83688   0.44067
H    -2.06553   0.78187   1.57055
H    -1.29832   3.95275  -0.01497
H    -1.36605   2.76586   1.31853
H    -2.45595   2.57366  -0.07354
H     1.15245   0.81059  -1.64291
H     0.35212  -1.96461  -0.84226
H     2.83689  -2.13484   2.33640
H     2.15738  -2.96314   0.90949
H     3.43746  -1.75506   0.69986
28

C    -3.52590  -0.74215   1.29135
N    -2.37217   0.05945   0.93180
C    -1.59855  -0.26881  -0.11955
O    -1.85695  -1.23942  -0.83991
C    -0.36943   0.58011  -0.37798
C    -0.38412   2.09017  -0.45737
C    -1.44715   2.89239   0.22992
O     0.51946   2.63886  -1.07736
N     0.52265   0.07711  -1.29202
C     1.03723  -1.15866  -1.09497
C     2.20106  -1.51778  -1.83829
N     3.18411  -1.82567  -2.38119
C     1.49847  -0.93959   1.08552
C     2.52653  -1.98426   1.29926
C     0.69019  -0.00340   1.34160
F     0.21337   0.76776   2.32435
H    -3.22995  -1.75648   1.60603
H    -4.04732  -0.25022   2.12024
H    -4.21528  -0.83688   0.44061
H    -2.06517   0.78100   1.57148
H    -1.29838   3.95275  -0.01444
H    -1.36661   2.76535   1.31885
H    -2.45557   2.57319  -0.07393
H     1.15249   0.80987  -1.64339
H     0.35195  -1.96530  -0.84317
H     2.83370  -2.13066   2.33888
H     2.15799  -2.96305   0.91234
H     3.43784  -1.75515   0.70245
28

C    -3.52661  -0.74240   1.29147
N    -2.37283   0.05920   0.93269
C    -1.59803  -0.26930  -0.11736
O    -1.85691  -1.23641  -0.84116
C    -0.35873   0.57579  -0.36258
C    -0.38229   2.09101  -0.45354
C    -1.44694   2.89217   0.23098
O     0.51743   2.63788  -1.07769
N     0.51983   0.07645  -1.29762
C     1.04422  -1.15811  -1.07654
C     2.20275  -1.51912  -1.83236
N     3.18283  -1.82555  -2.38115
C     1.49238  -0.93807   1.06173
C     2.52361  -1.97979   1.30410
C     0.67901   0.00270   1.31594
F     0.21912   0.76092   2.32614
H    -3.23015  -1.75656   1.60605
H    -4.04764  -0.25033   2.12022
H    -4.21536  -0.83688   0.44055
H    -2.06480   0.78013   1.57240
H    -1.29845   3.95274  -0.01392
H    -1.36718   2.76484   1.31917
H    -2.45518   2.57272  -0.07432
H     1.15253   0.80915  -1.64387
H     0.35178  -1.96599  -0.84409
H     2.83050  -2.12648   2.34137
H     2.15859  -2.96295   0.91519
H     3.43821  -1.75523   0.70504
28

C    -3.52732  -0.74265   1.29158
N    -2.37349   0.05895   0.93358
C    -1.59751  -0.26979  -0.11517
O    -1.85687  -1.23339  -0.84242
C    -0.34803   0.57146  -0.34717
C    -0.38045   2.09185  -0.44972
C    -1.44673   2.89195   0.23205
O     0.51539   2.63691  -1.07802
N     0.51700   0.07580  -1.30321
C     1.05120  -1.15756  -1.05810
C     2.20444  -1.52046  -1.82643
N     3.18154  -1.82542  -2.38111
C     1.48628  -0.93654   1.03793
C     2.52069  -1.97531   1.30893
C     0.66784   0.00881   1.29028
F     0.22488   0.75407   2.32792
H    -3.23036  -1.75664   1.60607
H    -4.04796  -0.25045   2.12021
H    -4.21545  -0.83688   0.44050
H    -2.06443   0.77925   1.57333
H    -1.29852   3.95274  -0.01339
H    -1.36774   2.76433   1.31949
H    -2.45480   2.57224  -0.07471
H     1.15256   0.80843  -1.64435
H     0.35161  -1.96668  -0.84500
H     2.82731  -2.12229   2.34385
H     2.15919  -2.96286   0.91804
H     3.43859  -1.75532   0.70764
28

C    -3.52804  -0.74290   1.29170
N    -2.37415   0.05871   0.93446
C    -1.59700  -0.27028  -0.11299
O    -1.85684  -1.23037  -0.84367
C    -0.33733   0.56713  -0.33176
C    -0.37861   2.09270  -0.44590
C    -1.44652   2.89173   0.23312
O     0.51335   2.63594  -1.07835
N     0.51417   0.07514  -1.30881
C     1.05819  -1.15700  -1.03967
C     2.20613  -1.52180  -1.82050
N     3.18026  -1.82529  -2.38107
C     1.48019  -0.93502   1.01413
C     2.51777  -1.97083   1.31377
C     0.65666   0.01491   1.26462
F     0.23064   0.74723   2.32970
H    -3.23056  -1.75672   1.60609
H    -4.04827  -0.25056   2.12019
H    -4.21554  -0.83688   0.44044
H    -2.06407   0.77838   1.57426
H    -1.29858   3.95273  -0.01286
H    -1.36830   2.76382   1.31981
H    -2.45442   2.57177  -0.07510
H     1.15260   0.80771  -1.64482
H     0.35143  -1.96737  -0.84592
H     2.82412  -2.11811   2.34634
H     2.15980  -2.96277   0.92089
H     3.43897  -1.75540   0.71023
28

C    -3.52875  -0.74315   1.29182
N    -2.37482   0.05846   0.93535
C    -1.59648  -0.27077  -0.11080
O    -1.85680  -1.22735  -0.84492
C    -0.32663   0.56280  -0.31636
C    -0.37678   2.09354  -0.44207
C    -1.44631   2.89151   0.23419
O     0.51131   2.63496  -1.07868
N     0.51135   0.07448  -1.31441
C     1.06518  -1.15645  -1.02124
C     2.20782  -1.52314  -1.81456
N     3.17897  -1.82517  -2.38104
C     1.47410  -0.93349   0.99033
C     2.51484  -1.96635   1.31861
C     0.64549   0.02102   1.23896
F     0.23639   0.74039   2.33148
H    -3.23077  -1.75680   1.60612
H    -4.04859  -0.25068   2.12018
H    -4.21562  -0.83688   0.44038
H    -2.06370   0.77751   1.57518
H    -1.29865   3.95273  -0.01234
H    -1.36886   2.76331   1.32013
H    -2.45403   2.57130  -0.07548
H     1.15264   0.80699  -1.64530
H     0.35126  -1.96806  -0.84683
H     2.82093  -2.11392   2.34882
H     2.16040  -2.96268   0.92374
H     3.43934  -1.75549   0.71282
28

C    -3.52946  -0.74340   1.29194
N    -2.37548   0.05822   0.93624
C    -1.59596  -0.27126  -0.10861
O    -1.85677  -1.22433  -0.84617
C    -0.31592   0.55847  -0.30095
C    -0.37494   2.09438  -0.43825
C    -1.44609   2.89130   0.23526
O     0.50927   2.63399  -1.07902
N     0.50852   0.07383  -1.32001
C     1.07216  -1.15589  -1.00280
C     2.20951  -1.52448  -1.80863
N     3.17769  -1.82504  -2.38100
C     1.46801  -0.93197   0.96654
C     2.51192  -1.96187   1.32344
C     0.63432   0.02712   1.21330
F     0.24215   0.73355   2.33327
H    -3.23097  -1.75688   1.60614
H    -4.04891  -0.25079   2.12017
H    -4.21571  -0.83688   0.44032
H    -2.06333   0.77664   1.57611
H    -1.29872   3.95272  -0.01181
H    -1.36943   2.76280   1.32045
H    -2.45365   2.57083  -0.07587
H     1.15268   0.80627  -1.64578
H     0.35109  -1.96875  -0.84775
H     2.81774  -2.10974   2.35131
H     2.16101  -2.96259   0.92659
H     3.43972  -1.75558   0.71542
28

C    -3.53017  -0.74364   1.29206
N    -2.37614   0.05797   0.93713
C    -1.59544  -0.27175  -0.10642
O    -1.85673  -1.22131  -0.84742
C    -0.30522   0.55414  -0.28555
C    -0.37310   2.09522  -0.43442
C    -1.44588   2.89108   0.23633
O     0.50724   2.63301  -1.07935
N     0.50570   0.07317  -1.32561
C     1.07915  -1.15534  -0.98437
C     2.21121  -1.52582  -1.80270
N     3.17640  -1.82492  -2.38096
C     1.46191  -0.93044   0.94274
C     2.50900  -1.95739   1.32828
C     0.62314   0.03323   1.18764
F     0.24790   0.72670   2.33505
H    -3.23118  -1.75696   1.60616
H    -4.04923  -0.25091   2.12015
H    -4.21579  -0.83688   0.44027
H    -2.06296   0.77577   1.57703
H    -1.29878   3.95272  -0.01129
H    -1.36999   2.76228   1.32077
H    -2.45327   2.57036  -0.07626
H     1.15271   0.80555  -1.64626
H     0.35091  -1.96944  -0.84866
H     2.81455  -2.10555   2.35379
H     2.16161  -2.96250   0.92944
H     3.44009  -1.75566   0.71801
28

C    -3.52946  -0.74340   1.29194
N    -2.37548   0.05822   0.93624
C    -1.59596  -0.27126  -0.10861
O    -1.85677  -1.22433  -0.84617
C    -0.31592   0.55847  -0.30095
C    -0.37494   2.09438  -0.43825
C    -1.44609   2.89130   0.23526
O     0.50927   2.63399  -1.07902
N     0.50852   0.07383  -1.32001
C     1.07216  -1.15589  -1.00280
C     2.20951  -1.52448  -1.80863
N     3.17769  -1.82504  -2.38100
C     1.46801  -0.93197   0.96654
C     2.51192  -1.96187   1.32344
C     0.63432   0.02712   1.21330
F     0.24215   0.73355   2.33327
H    -3.23097  -1.75688   1.60614
H    -4.04891  -0.25079   2.12017
H    -4.21571  -0.83688   0.44032
H    -2.06333   0.77664   1.57611
H    -1.29872   3.95272  -0.01181
H    -1.36943   2.76280   1.32045
H    -2.45365   2.57083  -0.07587
H     1.15268   0.80627  -1.64578
H     0.35109  -1.96875  -0.84775
H     2.81774  -2.10974   2.35131
H     2.16101  -2.96259   0.92659
H     3.43972  -1.75558   0.71542
28

C    -3.52875  -0.74315   1.29182
N    -2.37482   0.05846   0.93535
C    -1.59648  -0.27077  -0.11080
O    -1.85680  -1.22735  -0.84492
C    -0.32663   0.56280  -0.31636
C    -0.37678   2.09354  -0.44207
C    -1.44631   2.89151   0.23419
O     0.51131   2.63496  -1.07868
N     0.51135   0.07448  -1.31441
C     1.06518  -1.15645  -1.02124
C     2.20782  -1.52314  -1.81456
N     3.17897  -1.82517  -2.38104
C     1.47410  -0.93349   0.99033
C     2.51484  -1.96635   1.31861
C     0.64549   0.02102   1.23896
F     0.23639   0.74039   2.33148
H    -3.23077  -1.75680   1.60612
H    -4.04859  -0.25068   2.12018
H    -4.21562  -0.83688   0.44038
H    -2.06370   0.77751   1.57518
H    -1.29865   3.95273  -0.01234
H    -1.36886   2.76331   1.32013
H    -2.45403   2.57130  -0.07548
H     1.15264   0.80699  -1.64530
H     0.35126  -1.96806  -0.84683
H     2.82093  -2.11392   2.34882
H     2.16040  -2.96268   0.92374
H     3.43934  -1.75549   0.71282
28

C    -3.52804  -0.74290   1.29170
N    -2.37415   0.05871   0.93446
C    -1.59700  -0.27028  -0.11299
O    -1.85684  -1.23037  -0.84367
C    -0.33733   0.56713  -0.33176
C    -0.37861   2.09270  -0.44590
C    -1.44652   2.89173   0.23312
O     0.51335   2.63594  -1.07835
N     0.51417   0.07514  -1.30881
C     1.05819  -1.15700  -1.03967
C     2.20613  -1.52180  -1.82050
N     3.18026  -1.82529  -2.38107
C     1.48019  -0.93502   1.01413
C     2.51777  -1.97083   1.31377
C     0.65666   0.01491   1.26462
F     0.23064   0.74723   2.32970
H    -3.23056  -1.75672   1.60609
H    -4.04827  -0.25056   2.12019
H    -4.21554  -0.83688   0.44044
H    -2.06407   0.77838   1.57426
H    -1.29858   3.95273  -0.01286
H    -1.36830   2.76382   1.31981
H    -2.45442   2.57177  -0.07510
H     1.15260   0.80771  -1.64482
H     0.35143  -1.96737  -0.84592
H     2.82412  -2.11811   2.34634
H     2.15980  -2.96277   0.92089
H     3.43897  -1.75540   0.71023
28

C    -3.52732  -0.74265   1.29158
N    -2.37349   0.05895   0.93358
C    -1.59751  -0.26979  -0.11517
O    -1.85687  -1.23339  -0.84242
C    -0.34803   0.57146  -0.34717
C    -0.38045   2.09185  -0.44972
C    -1.44673   2.89195   0.23205
O     0.51539   2.63691  -1.07802
N     0.51700   0.07580  -1.30321
C     1.05120  -1.15756  -1.05810
C     2.20444  -1.52046  -1.82643
N     3.18154  -1.82542  -2.38111
C     1.48628  -0.93654   1.03793
C     2.52069  -1.97531   1.30893
C     0.66784   0.00881   1.29028
F     0.22488   0.75407   2.32792
H    -3.23036  -1.75664   1.60607
H    -4.04796  -0.25045   2.12021
H    -4.21545  -0.83688   0.44050
H    -2.06443   0.77925   1.57333
H    -1.29852   3.95274  -0.01339
H    -1.36774   2.76433   1.31949
H    -2.45480   2.57224  -0.07471
H     1.15256   0.80843  -1.64435
H     0.35161  -1.96668  -0.84500
H     2.82731  -2.12229   2.34385
H     2.15919  -2.96286   0.91804
H     3.43859  -1.75532   0.70764
28

C    -3.52661  -0.74240   1.29147
N    -2.37283   0.05920   0.93269
C    -1.59803  -0.26930  -0.11736
O    -1.85691  -1.23641  -0.84116
C    -0.35873   0.57579  -0.36258
C    -0.38229   2.09101  -0.45354
C    -1.44694   2.89217   0.23098
O     0.51743   2.63788  -1.07769
N     0.51983   0.07645  -1.29762
C     1.04422  -1.15811  -1.07654
C     2.20275  -1.51912  -1.83236
N     3.18283  -1.82555  -2.38115
C     1.49238  -0.93807   1.06173
C     2.52361  -1.97979   1.30410
C     0.67901   0.00270   1.31594
F     0.21912   0.76092   2.32614
H    -3.23015  -1.75656   1.60605
H    -4.04764  -0.25033   2.12022
H    -4.21536  -0.83688   0.44055
H    -2.06480   0.78013   1.57240
H    -1.29845   3.95274  -0.01392
H    -1.36718   2.76484   1.31917
H    -2.45518   2.57272  -0.07432
H     1.15253   0.80915  -1.64387
H     0.35178  -1.96599  -0.84409
H     2.83050  -2.12648   2.34137
H     2.15859  -2.96295   0.91519
H     3.43821  -1.75523   0.70504
28

C    -3.52590  -0.74215   1.29135
N    -2.37217   0.05945   0.93180
C    -1.59855  -0.26881  -0.11955
O    -1.85695  -1.23942  -0.83991
C    -0.36943   0.58011  -0.37798
C    -0.38412   2.09017  -0.45737
C    -1.44715   2.89239   0.22992
O     0.51946   2.63886  -1.07736
N     0.52265   0.07711  -1.29202
C     1.03723  -1.15866  -1.09497
C     2.20106  -1.51778  -1.83829
N     3.18411  -1.82567  -2.38119
C     1.49847  -0.93959   1.08552
C     2.52653  -1.98426   1.29926
C     0.69019  -0.00340   1.34160
F     0.21337   0.76776   2.32435
H    -3.22995  -1.75648   1.60603
H    -4.04732  -0.25022   2.12024
H    -4.21528  -0.83688   0.44061
H    -2.06517   0.78100   1.57148
H    -1.29838   3.95275  -0.01444
H    -1.36661   2.76535   1.31885
H    -2.45557   2.57319  -0.07393
H     1.15249   0.80987  -1.64339
H     0.35195  -1.96530  -0.84317
H     2.83370  -2.13066   2.33888
H     2.15799  -2.96305   0.91234
H     3.43784  -1.75515   0.70245
28

C    -3.52519  -0.74190   1.29123
N    -2.37150   0.05969   0.93091
C    -1.59907  -0.26832  -0.12174
O    -1.85698  -1.24244  -0.83866
C    -0.38014   0.58444  -0.39339
C    -0.38596   2.08933  -0.46119
C    -1.44736   2.89261   0.22885
O     0.52150   2.63983  -1.07703
N     0.52548   0.07776  -1.28642
C     1.03024  -1.15922  -1.11341
C     2.19937  -1.51644  -1.84422
N     3.18540  -1.82580  -2.38122
C     1.50456  -0.94112   1.10932
C     2.52945  -1.98874   1.29442
C     0.70136  -0.00951   1.36726
F     0.20761   0.77460   2.32257
H    -3.22974  -1.75640   1.60601
H    -4.04700  -0.25010   2.12025
H    -4.21519  -0.83688   0.44067
H    -2.06553   0.78187   1.57055
H    -1.29832   3.95275  -0.01497
H    -1.36605   2.76586   1.31853
H    -2.45595   2.57366  -0.07354
H     1.15245   0.81059  -1.64291
H     0.35212  -1.96461  -0.84226
H     2.83689  -2.13484   2.33640
H     2.15738  -2.96314   0.90949
H     3.43746  -1.75506   0.69986
28

C    -3.52448  -0.74166   1.29111
N    -2.37084   0.05994   0.93003
C    -1.59959  -0.26782  -0.12393
O    -1.85702  -1.24546  -0.83741
C    -0.39084   0.58877  -0.40879
C    -0.38780   2.08849  -0.46502
C    -1.44758   2.89283   0.22778
O     0.52354   2.64081  -1.07670
N     0.52830   0.07842  -1.28082
C     1.02325  -1.15977  -1.13184
C     2.19767  -1.51510  -1.85015
N     3.18668  -1.82592  -2.38126
C     1.51065  -0.94264   1.13312
C     2.53238  -1.99322   1.28959
C     0.71253  -0.01561   1.39292
F     0.20185   0.78145   2.32079
H    -3.22954  -1.75632   1.60598
H    -4.04668  -0.24999   2.12026
H    -4.21511  -0.83688   0.44073
H    -2.06590   0.78274   1.56963
H    -1.29825   3.95276  -0.01550
H    -1.36549   2.76637   1.31821
H    -2.45633   2.57413  -0.07315
H     1.15241   0.81131  -1.64243
H     0.35230  -1.96392  -0.84134
H     2.84008  -2.13903   2.33391
H     2.15678  -2.96323   0.90664
H     3.43709  -1.75497   0.69726
28

C    -3.52377  -0.74141   1.29099
N    -2.37018   0.06019   0.92914
C    -1.60010  -0.26733  -0.12612
O    -1.85706  -1.24848  -0.83616
C    -0.40154   0.59310  -0.42420
C    -0.38963   2.08765  -0.46884
C    -1.44779   2.89304   0.22671
O     0.52558   2.64178  -1.07637
N     0.53113   0.07907  -1.27522
C     1.01627  -1.16033  -1.15027
C     2.19598  -1.51376  -1.85608
N     3.18797  -1.82605  -2.38130
C     1.51675  -0.94417   1.15692
C     2.53530  -1.99770   1.28475
C     0.72371  -0.02172   1.41858
F     0.19610   0.78829   2.31901
H    -3.22933  -1.75623   1.60596
H    -4.04637  -0.24987   2.12028
H    -4.21502  -0.83688   0.44078
H    -2.06627   0.78361   1.56870
H    -1.29818   3.95276  -0.01602
H    -1.36493   2.76688   1.31789
H    -2.45672   2.57460  -0.07276
H     1.15237   0.81203  -1.64196
H     0.35247  -1.96323  -0.84043
H     2.84327  -2.14321   2.33143
H     2.15617  -2.96332   0.90379
H     3.43671  -1.75489   0.69467
28

C    -3.52306  -0.74116   1.29087
N    -2.36952   0.06043   0.92825
C    -1.60062  -0.26684  -0.12831
O    -1.85709  -1.25150  -0.83491
C    -0.41224   0.59743  -0.43960
C    -0.39147   2.08681  -0.47267
C    -1.44800   2.89326   0.22564
O     0.52762   2.64276  -1.07604
N     0.53396   0.07973  -1.26962
C     1.00928  -1.16088  -1.16871
C     2.19429  -1.51242  -1.86202
N     3.18925  -1.82617  -2.38133
C     1.52284  -0.94569   1.18071
C     2.53822  -2.00218   1.27991
C     0.73488  -0.02782   1.44424
F     0.19034   0.79513   2.31722
H    -3.22913  -1.75615   1.60594
H    -4.04605  -0.24976   2.12029
H    -4.21494  -0.83688   0.44084
H    -2.06663   0.78449   1.56777
H    -1.29811   3.95277  -0.01655
H    -1.36436   2.76740   1.31757
H    -2.45710   2.57507  -0.07237
H     1.15234   0.81275  -1.64148
H     0.35264  -1.96254  -0.83951
H     2.84646  -2.14740   2.32894
H     2.15557  -2.96341   0.90093
H     3.43634  -1.75480   0.69208
28

C    -3.52235  -0.74091   1.29075
N    -2.36886   0.06068   0.92736
C    -1.60114  -0.26635  -0.13050
O    -1.85713  -1.25452  -0.83365
C    -0.42294   0.60176  -0.45501
C    -0.39331   2.08597  -0.47649
C    -1.44821   2.89348   0.22457
O     0.52966   2.64373  -1.07571
N     0.53678   0.08038  -1.26402
C     1.00229  -1.16143  -1.18714
C     2.19260  -1.51108  -1.86795
N     3.19054  -1.82630  -2.38137
C     1.52893  -0.94721   1.20451
C     2.54114  -2.00666   1.27508
C     0.74606  -0.03393   1.46990
F     0.18459   0.80197   2.31544
H    -3.22892  -1.75607   1.60592
H    -4.04573  -0.24964   2.12031
H    -4.21485  -0.83688   0.44090
H    -2.06700   0.78536   1.56685
H    -1.29805   3.95277  -0.01708
H    -1.36380   2.76791   1.31725
H    -2.45748   2.57554  -0.07198
H     1.15230   0.81347  -1.64100
H     0.35282  -1.96185  -0.83860
H     2.84965  -2.15158   2.32646
H     2.15497  -2.96350   0.89808
H     3.43596  -1.75472   0.68948
28

C    -3.52163  -0.74066   1.29063
N    -2.36819   0.06092   0.92648
C    -1.60166  -0.26586  -0.13269
O    -1.85716  -1.25754  -0.83240
C    -0.43365   0.60609  -0.47042
C    -0.39515   2.08512  -0.48031
C    -1.44842   2.89370   0.22350
O     0.53169   2.64470  -1.07538
N     0.53961   0.08104  -1.25843
C     0.99530  -1.16199  -1.20557
C     2.19091  -1.50974  -1.87388
N     3.19182  -1.82642  -2.38141
C     1.53502  -0.94874   1.22831
C     2.54407  -2.01113   1.27024
C     0.75723  -0.04003   1.49556
F     0.17883   0.80882   2.31366
H    -3.22872  -1.75599   1.60590
H    -4.04541  -0.24953   2.12032
H    -4.21477  -0.83688   0.44095
H    -2.06737   0.78623   1.56592
H    -1.29798   3.95278  -0.01760
H    -1.36324   2.76842   1.31693
H    -2.45787   2.57602  -0.07159
H     1.15226   0.81419  -1.64052
H     0.35299  -1.96115  -0.83768
H     2.85284  -2.15577   2.32397
H     2.15436  -2.96359   0.89523
H     3.43559  -1.75463   0.68689
28

C    -3.52092  -0.74041   1.29051
N    -2.36753   0.06117   0.92559
C    -1.60218  -0.26537  -0.13488
O    -1.85720  -1.26056  -0.83115
C    -0.44435   0.61042  -0.48582
C    -0.39698   2.08428  -0.48414
C    -1.44863   2.89392   0.22243
O     0.53373   2.64568  -1.07505
N     0.54244   0.08169  -1.25283
C     0.98832  -1.16254  -1.22401
C     2.18922  -1.50839  -1.87981
N     3.19311  -1.82655  -2.38144
C     1.54112  -0.95026   1.25211
C     2.54699  -2.01561   1.26540
C     0.76840  -0.04614   1.52122
F     0.17307   0.81566   2.31188
H    -3.22851  -1.75591   1.60587
H    -4.04509  -0.24941   2.12033
H    -4.21468  -0.83688   0.44101
H    -2.06774   0.78710   1.56500
H    -1.29791   3.95279  -0.01813
H    -1.36267   2.76893   1.31661
H    -2.45825   2.57649  -0.07120
H     1.15222   0.81491  -1.64004
H     0.35316  -1.96046  -0.83677
H     2.85604  -2.15995   2.32149
H     2.15376  -2.96369   0.89238
H     3.43521  -1.75454   0.68430
28

C    -3.52021  -0.74016   1.29040
N    -2.36687   0.06142   0.92470
C    -1.60269  -0.26488  -0.13707
O    -1.85724  -1.26358  -0.82990
C    -0.45505   0.61475  -0.50123
C    -0.39882   2.08344  -0.48796
C    -1.44885   2.89414   0.22136
O     0.53577   2.64665  -1.07472
N     0.54526   0.08235  -1.24723
C     0.98133  -1.16310  -1.24244
C     2.18753  -1.50705  -1.88574
N     3.19439  -1.82667  -2.38148
C     1.54721  -0.95179   1.27591
C     2.54991  -2.02009   1.26057
C     0.77958  -0.05224   1.54688
F     0.16732   0.82250   2.31009
H    -3.22831  -1.75583   1.60585
H    -4.04478  -0.24929   2.12035
H    -4.21459  -0.83687   0.44107
H    -2.06810   0.78797   1.56407
H    -1.29785   3.95279  -0.01866
H    -1.36211   2.76944   1.31629
H    -2.45863   2.57696  -0.07081
H     1.15218   0.81563  -1.63957
H     0.35333  -1.95977  -0.83585
H     2.85923  -2.16414   2.31900
H     2.15315  -2.96378   0.88953
H     3.43484  -1.75446   0.68170
28

C    -3.51950  -0.73992   1.29028
N    -2.36621   0.06166   0.92381
C    -1.60321  -0.26439  -0.13926
O    -1.85727  -1.26659  -0.82865
C    -0.46575   0.61908  -0.51663
C    -0.40066   2.08260  -0.49179
C    -1.44906   2.89436   0.22029
O     0.53781   2.64763  -1.07439
N     0.54809   0.08300  -1.24163
C     0.97434  -1.16365  -1.26087
C     2.18583  -1.50571  -1.89167
N     3.19568  -1.82680  -2.38152
C     1.55330  -0.95331   1.29970
C     2.55283  -2.02457   1.25573
C     0.79075  -0.05835   1.57254
F     0.16156   0.82935   2.30831
H    -3.22810  -1.75575   1.60583
H    -4.04446  -0.24918   2.12036
H    -4.21451  -0.83687   0.44113
H    -2.06847   0.78885   1.56314
H    -1.29778   3.95280  -0.01918
H    -1.36155   2.76995   1.31597
H    -2.45902   2.57743  -0.07042
H     1.15215   0.81635  -1.63909
H     0.35351  -1.95908  -0.83494
H     2.86242  -2.16832   2.31652
H     2.15255  -2.96387   0.88668
H     3.43446  -1.75437   0.67911
28

C    -3.51879  -0.73967   1.29016
N    -2.36554   0.06191   0.92293
C    -1.60373  -0.26390  -0.14145
O    -1.85731  -1.26961  -0.82740
C    -0.47645   0.62341  -0.53204
C    -0.40249   2.08176  -0.49561
C    -1.44927   2.89457   0.21922
O     0.53985   2.64860  -1.07406
N     0.55091   0.08366  -1.23603
C     0.96736  -1.16420  -1.27931
C     2.18414  -1.50437  -1.89760
N     3.19696  -1.82692  -2.38155
C     1.55939  -0.95484   1.32350
C     2.55576  -2.02905   1.25089
C     0.80193  -0.06445   1.59820
F     0.15580   0.83619   2.30653
H    -3.22790  -1.75567   1.60581
H    -4.04414  -0.24906   2.12038
H    -4.21442  -0.83687   0.44118
H    -2.06884   0.78972   1.56222
H    -1.29771   3.95280  -0.01971
H    -1.36099   2.77046   1.31565
H    -2.45940   2.57790  -0.07003
H     1.15211   0.81707  -1.63861
H     0.35368  -1.95839  -0.83402
H     2.86561  -2.17251   2.31403
H     2.15195  -2.96396   0.88383
H     3.43409  -1.75429   0.67652
28

C    -3.51808  -0.73942   1.29004
N    -2.36488   0.06215   0.92204
C    -1.60425  -0.26341  -0.14364
O    -1.85735  -1.27263  -0.82615
C    -0.48716   0.62774  -0.54744
C    -0.40433   2.08092  -0.49943
C    -1.44948   2.89479   0.21815
O     0.54188   2.64957  -1.07372
N     0.55374   0.08431  -1.23043
C     0.96037  -1.16476  -1.29774
C     2.18245  -1.50303  -1.90354
N     3.19825  -1.82705  -2.38159
C     1.56549  -0.95636   1.34730
C     2.55868  -2.03352   1.24606
C     0.81310  -0.07056   1.62386
F     0.15005   0.84303   2.30474
H    -3.22769  -1.75559   1.60579
H    -4.04382  -0.24895   2.12039
H    -4.21434  -0.83687   0.44124
H    -2.06920   0.79059   1.56129
H    -1.29765   3.95281  -0.02024
H    -1.36042   2.77097   1.31532
H    -2.45978   2.57837  -0.06964
H     1.15207   0.81779  -1.63813
H     0.35385  -1.95770  -0.83310
H     2.86880  -2.17669   2.31155
H     2.15134  -2.96405   0.88098
H     3.43371  -1.75420   0.67392
28

C    -3.51737  -0.73917   1.28992
N    -2.36422   0.06240   0.92115
C    -1.60477  -0.26292  -0.14583
O    -1.85738  -1.27565  -0.82489
C    -0.49786   0.63207  -0.56285
C    -0.40617   2.08008  -0.50326
C    -1.44969   2.89501   0.21708
O     0.54392   2.65055  -1.07339
N     0.55657   0.08497  -1.22484
C     0.95338  -1.16531  -1.31617
C     2.18076  -1.50169  -1.90947
N     3.19953  -1.82717  -2.38163
C     1.57158  -0.95789   1.37110
C     2.56160  -2.03800   1.24122
C     0.82427  -0.07666   1.64952
F     0.14429   0.84987   2.30296
H    -3.22749  -1.75551   1.60576
H    -4.04350  -0.24883   2.12040
H    -4.21425  -0.83687   0.44130
H    -2.06957   0.79146   1.56037
H    -1.29758   3.95281  -0.02076
H    -1.35986   2.77149   1.31500
H    -2.46017   2.57884  -0.06925
H     1.15203   0.81851  -1.63765
H     0.35402  -1.95701  -0.83219
H     2.87199  -2.18088   2.30906
H     2.15074  -2.96414   0.87813
H     3.43334  -1.75411   0.67133
28

C    -3.51666  -0.73892   1.28980
N    -2.36356   0.06265   0.92026
C    -1.60529  -0.26242  -0.14802
O    -1.85742  -1.27867  -0.82364
C    -0.50856   0.63640  -0.57825
C    -0.40800   2.07924  -0.50708
C    -1.44990   2.89523   0.21601
O     0.54596   2.65152  -1.07306
N     0.55939   0.08562  -1.21924
C     0.94639  -1.16587  -1.33461
C     2.17907  -1.50035  -1.91540
N     3.20082  -1.82730  -2.38166
C     1.57767  -0.95941   1.39489
C     2.56452  -2.04248   1.23638
C     0.83545  -0.08277   1.67518
F     0.13853   0.85672   2.30118
H    -3.22728  -1.75543   1.60574
H    -4.04319  -0.24872   2.12042
H    -4.21417  -0.83687   0.44136
H    -2.06994   0.79233   1.55944
H    -1.29751   3.95282  -0.02129
H    -1.35930   2.77200   1.31468
H    -2.46055   2.57932  -0.06886
H     1.15200   0.81923  -1.63718
H     0.35420  -1.95632  -0.83127
H     2.87518  -2.18506   2.30658
H     2.15013  -2.96423   0.87528
H     3.43296  -1.75403   0.66874
