15

C 3.468113048 -2.459567463 -0.744040828
O 0.813923410 -2.728538494 -0.580416151
C -0.525182423 -0.652653068 0.057622323
N 0.540963507 1.490237266 0.421348587
C -0.617903196 3.948603354 0.538995074
C -3.289116829 -1.067198943 0.268004001
H 3.997366622 -1.199560444 -2.293062881
H 4.209729830 -4.341756906 -1.104674423
H 4.244679351 -1.714159645 1.018156355
H -2.665995173 4.056996287 0.657548781
H 0.459982280 5.197893491 1.747994114
H 1.430738445 2.820766199 -0.963682353
H -4.255214838 -0.441456218 -1.451571051
H -3.695323324 -3.059532963 0.571040502
H -4.048469805 0.046130558 1.833462175

