12

O -3.798384433 -2.470966555 0.156148788
C -2.016316119 -0.980476727 -0.285871173
C 0.959395850 -1.993215143 -0.384204489
C 2.399996133 0.327189014 -0.128115929
C 0.944281008 2.300719485 0.682624691
C -1.601394207 1.560875531 0.743810111
H 1.506978576 -3.229590702 -1.935018740
H 0.904763471 -3.090826090 1.356984778
H 4.309056159 0.558969404 -0.836221687
H 1.616579630 4.206468956 0.988202759
H -3.165324423 2.719235920 1.384717321
H -1.974427656 -0.033433866 -2.288208402

