14

C -3.641227098 0.539231309 0.353087900
C -0.856015585 0.310682578 0.221429037
C 0.999906287 2.023953881 0.886289943
C 3.339858810 0.878181714 0.471069228
N 3.047684947 -1.408186076 -0.456672292
C 0.330202787 -2.034015785 -0.800183816
O -0.442966392 -4.264891483 -0.823324779
H -4.282151051 2.495793645 0.351487453
H -4.280837087 -0.373834768 2.093667843
H -4.521282305 -0.490174113 -1.197621150
H 0.063080230 -0.799504592 -2.719262168
H 0.732117223 3.955631945 1.481433674
H 5.188612365 1.726658010 0.679273847
H 4.419266291 -2.656616651 -0.871027173

