13

C -4.300867844 1.403271182 -0.363293536
N -1.940405820 0.072353796 -0.007184644
C 2.567359274 -3.428536476 1.606129048
C 4.590162822 -3.315930418 0.594754675
C 2.647347242 0.959669350 -1.035951036
C 0.108072265 1.094130639 -0.583195787
H -5.283425103 1.566502568 1.443677362
H -5.515594284 0.313007697 -1.625482584
H -4.063776133 3.302805230 -1.160393186
H 0.714463250 -3.465351799 2.402904573
H 6.396262084 -3.290619331 -0.293045518
H 3.749967986 1.959672202 0.403682747
H 0.340156882 3.106743273 -1.469300839

