11

C -0.931360005 2.022749464 -1.967593990
C 0.448501532 0.036010470 -1.259526480
C 3.090673193 0.276611175 -0.265010354
H 4.405913467 -0.773648206 -1.460830520
H 3.226367528 -0.503720199 1.645004947
H 3.679824471 2.245249919 -0.199413746
N -0.369493198 -2.453680588 -1.491697060
H 0.324566509 -3.665055788 -0.200506688
H -2.238787434 -2.677150302 -1.763028095
H -2.837683878 1.809877448 -2.685073394
H -0.156401217 3.909518791 -1.882137835

