8

C -1.397975659 -0.773363651 2.945320259
C -0.002805601 -2.191475665 1.414414840
C 2.415822004 -1.450181970 0.471277551
C 4.448006965 -0.868246876 -0.344978253
H 6.250374320 -0.337075287 -1.062106773
H -0.681856687 -4.028300928 0.804722844
H -0.757756819 1.064928834 3.576904902
H -3.220292323 -1.426301198 3.606293054

