15

N 3.843696626 0.140692793 -2.557543885
C 2.999267499 -0.983238146 -0.493936312
O 3.966442577 -3.023389513 0.401115195
C 0.833975351 -0.325949203 1.011751487
N -1.030535969 1.266779873 -0.181318995
C -3.381724218 1.559487565 1.184640149
C -3.282650678 0.007949908 -1.136368607
H 5.131101196 -0.692507448 -3.674306735
H 2.990913984 1.749502834 -3.103998767
H 1.940953973 -2.971363236 1.526483611
H 1.487120730 0.470407408 2.800788506
H -3.550688826 0.552255037 2.964219788
H -4.219073070 3.428221119 1.151199178
H -3.370606544 -2.028375765 -0.909188586
H -4.034384278 0.743431901 -2.894019996

