22

C    -2.50125   1.23610   0.99982
C    -1.32403   0.90250   0.15846
O    -0.15537   1.58202   0.34849
C     0.71622   0.93667  -0.52341
C     1.94007   1.67190  -0.78767
N     2.99221   2.14097  -0.93905
O    -0.03226   0.63870  -1.67079
C    -1.34812   0.49867  -1.24454
O    -2.23110   0.09678  -1.96506
C     0.91738  -0.70001   0.33172
C     1.90694  -0.32647   1.46063
O     3.12578  -0.53831   1.23070
O     1.41752   0.19637   2.49724
C    -0.43638  -0.99393   0.66339
C    -1.27260  -2.04870  -0.05976
O    -2.38467  -2.33245   0.46704
O    -0.81334  -2.52712  -1.12952
H    -3.14575   0.36179   1.00341
H    -2.14296   1.43757   2.02888
H    -3.10200   2.11860   0.67338
H     1.38598  -1.36161  -0.44834
H    -0.73729  -0.85268   1.72306
22

C    -2.50137   1.23863   1.00087
C    -1.32928   0.91711   0.15097
O    -0.15640   1.58332   0.34495
C     0.71054   0.95816  -0.53453
C     1.94030   1.67630  -0.78900
N     2.99549   2.13942  -0.93772
O    -0.03331   0.64325  -1.67139
C    -1.35195   0.50318  -1.24563
O    -2.23232   0.09524  -1.96633
C     0.92154  -0.72470   0.34518
C     1.90824  -0.33057   1.46340
O     3.12792  -0.53562   1.23140
O     1.41842   0.19799   2.49678
C    -0.42847  -1.01348   0.67260
C    -1.27160  -2.05349  -0.05875
O    -2.38611  -2.33181   0.46549
O    -0.81505  -2.52854  -1.13114
H    -3.14391   0.36119   1.00419
H    -2.14138   1.43820   2.02860
H    -3.10458   2.11829   0.67589
H     1.38716  -1.36528  -0.44624
H    -0.73697  -0.85489   1.72390
22

C    -2.50150   1.24116   1.00192
C    -1.33453   0.93172   0.14347
O    -0.15743   1.58462   0.34142
C     0.70487   0.97965  -0.54566
C     1.94052   1.68069  -0.79033
N     2.99878   2.13788  -0.93639
O    -0.03436   0.64780  -1.67198
C    -1.35579   0.50769  -1.24672
O    -2.23354   0.09369  -1.96760
C     0.92570  -0.74938   0.35863
C     1.90954  -0.33468   1.46617
O     3.13007  -0.53294   1.23211
O     1.41932   0.19961   2.49633
C    -0.42055  -1.03303   0.68181
C    -1.27059  -2.05828  -0.05775
O    -2.38755  -2.33116   0.46394
O    -0.81676  -2.52996  -1.13276
H    -3.14206   0.36060   1.00497
H    -2.13979   1.43882   2.02832
H    -3.10715   2.11798   0.67841
H     1.38834  -1.36896  -0.44414
H    -0.73665  -0.85710   1.72474
22

C    -2.50162   1.24369   1.00297
C    -1.33978   0.94632   0.13598
O    -0.15847   1.58592   0.33788
C     0.69919   1.00114  -0.55679
C     1.94074   1.68508  -0.79167
N     3.00206   2.13634  -0.93506
O    -0.03541   0.65235  -1.67258
C    -1.35963   0.51220  -1.24780
O    -2.23477   0.09215  -1.96887
C     0.92986  -0.77407   0.37209
C     1.91084  -0.33878   1.46894
O     3.13221  -0.53026   1.23281
O     1.42023   0.20124   2.49587
C    -0.41264  -1.05258   0.69102
C    -1.26959  -2.06307  -0.05674
O    -2.38900  -2.33052   0.46239
O    -0.81847  -2.53137  -1.13438
H    -3.14022   0.36001   1.00575
H    -2.13821   1.43944   2.02805
H    -3.10973   2.11766   0.68093
H     1.38952  -1.37263  -0.44205
H    -0.73633  -0.85931   1.72558
22

C    -2.50175   1.24622   1.00402
C    -1.34503   0.96093   0.12849
O    -0.15950   1.58723   0.33435
C     0.69351   1.02263  -0.56791
C     1.94097   1.68948  -0.79300
N     3.00535   2.13480  -0.93373
O    -0.03646   0.65690  -1.67317
C    -1.36347   0.51670  -1.24889
O    -2.23599   0.09060  -1.97014
C     0.93402  -0.79876   0.38554
C     1.91213  -0.34288   1.47171
O     3.13435  -0.52758   1.23352
O     1.42113   0.20286   2.49542
C    -0.40472  -1.07212   0.70023
C    -1.26858  -2.06785  -0.05574
O    -2.39044  -2.32988   0.46085
O    -0.82018  -2.53279  -1.13600
H    -3.13837   0.35941   1.00653
H    -2.13662   1.44006   2.02777
H    -3.11231   2.11735   0.68345
H     1.39070  -1.37630  -0.43995
H    -0.73601  -0.86151   1.72642
22

C    -2.50187   1.24875   1.00506
C    -1.35028   0.97554   0.12099
O    -0.16053   1.58853   0.33081
C     0.68783   1.04412  -0.57904
C     1.94119   1.69387  -0.79433
N     3.00863   2.13325  -0.93240
O    -0.03751   0.66146  -1.67377
C    -1.36730   0.52121  -1.24998
O    -2.23721   0.08905  -1.97141
C     0.93818  -0.82344   0.39900
C     1.91343  -0.34698   1.47448
O     3.13649  -0.52489   1.23422
O     1.42203   0.20449   2.49496
C    -0.39681  -1.09167   0.70943
C    -1.26758  -2.07264  -0.05474
O    -2.39188  -2.32924   0.45930
O    -0.82189  -2.53420  -1.13762
H    -3.13653   0.35882   1.00731
H    -2.13504   1.44069   2.02749
H    -3.11489   2.11704   0.68597
H     1.39189  -1.37998  -0.43786
H    -0.73569  -0.86372   1.72725
22

C    -2.50199   1.25128   1.00611
C    -1.35554   0.99015   0.11350
O    -0.16156   1.58983   0.32727
C     0.68216   1.06561  -0.59017
C     1.94142   1.69827  -0.79567
N     3.01191   2.13171  -0.93107
O    -0.03856   0.66601  -1.67436
C    -1.37114   0.52572  -1.25106
O    -2.23844   0.08751  -1.97268
C     0.94234  -0.84813   0.41246
C     1.91473  -0.35108   1.47725
O     3.13864  -0.52221   1.23493
O     1.42294   0.20611   2.49450
C    -0.38889  -1.11122   0.71864
C    -1.26657  -2.07743  -0.05373
O    -2.39332  -2.32860   0.45775
O    -0.82360  -2.53562  -1.13924
H    -3.13468   0.35822   1.00809
H    -2.13345   1.44131   2.02722
H    -3.11747   2.11672   0.68848
H     1.39307  -1.38365  -0.43576
H    -0.73537  -0.86593   1.72809
22

C    -2.50212   1.25381   1.00716
C    -1.36079   1.00475   0.10601
O    -0.16260   1.59113   0.32374
C     0.67648   1.08710  -0.60130
C     1.94164   1.70266  -0.79700
N     3.01520   2.13017  -0.92975
O    -0.03961   0.67056  -1.67496
C    -1.37498   0.53023  -1.25215
O    -2.23966   0.08596  -1.97395
C     0.94650  -0.87282   0.42591
C     1.91603  -0.35518   1.48002
O     3.14078  -0.51953   1.23563
O     1.42384   0.20773   2.49405
C    -0.38098  -1.13077   0.72785
C    -1.26557  -2.08222  -0.05273
O    -2.39476  -2.32796   0.45620
O    -0.82531  -2.53704  -1.14086
H    -3.13284   0.35763   1.00887
H    -2.13187   1.44193   2.02694
H    -3.12005   2.11641   0.69100
H     1.39425  -1.38733  -0.43367
H    -0.73505  -0.86814   1.72893
22

C    -2.50224   1.25634   1.00821
C    -1.36604   1.01936   0.09851
O    -0.16363   1.59243   0.32020
C     0.67080   1.10859  -0.61242
C     1.94187   1.70705  -0.79834
N     3.01848   2.12863  -0.92842
O    -0.04066   0.67511  -1.67556
C    -1.37882   0.53473  -1.25324
O    -2.24088   0.08442  -1.97522
C     0.95066  -0.89750   0.43937
C     1.91732  -0.35928   1.48279
O     3.14292  -0.51684   1.23633
O     1.42474   0.20936   2.49359
C    -0.37306  -1.15032   0.73706
C    -1.26456  -2.08700  -0.05172
O    -2.39621  -2.32732   0.45465
O    -0.82702  -2.53845  -1.14248
H    -3.13099   0.35704   1.00965
H    -2.13028   1.44255   2.02667
H    -3.12263   2.11610   0.69352
H     1.39543  -1.39100  -0.43157
H    -0.73473  -0.87035   1.72977
22

C    -2.50237   1.25887   1.00925
C    -1.37129   1.03397   0.09102
O    -0.16466   1.59373   0.31666
C     0.66513   1.13008  -0.62355
C     1.94209   1.71145  -0.79967
N     3.02177   2.12708  -0.92709
O    -0.04171   0.67966  -1.67615
C    -1.38266   0.53924  -1.25433
O    -2.24211   0.08287  -1.97649
C     0.95482  -0.92219   0.45283
C     1.91862  -0.36338   1.48556
O     3.14506  -0.51416   1.23704
O     1.42565   0.21098   2.49314
C    -0.36515  -1.16986   0.74627
C    -1.26356  -2.09179  -0.05072
O    -2.39765  -2.32668   0.45310
O    -0.82873  -2.53987  -1.14410
H    -3.12915   0.35644   1.01043
H    -2.12870   1.44317   2.02639
H    -3.12521   2.11578   0.69604
H     1.39661  -1.39467  -0.42948
H    -0.73441  -0.87256   1.73061
22

C    -2.50249   1.26140   1.01030
C    -1.37654   1.04857   0.08353
O    -0.16569   1.59503   0.31313
C     0.65945   1.15157  -0.63468
C     1.94232   1.71584  -0.80100
N     3.02505   2.12554  -0.92576
O    -0.04276   0.68421  -1.67675
C    -1.38649   0.54375  -1.25541
O    -2.24333   0.08133  -1.97776
C     0.95898  -0.94688   0.46628
C     1.91992  -0.36748   1.48833
O     3.14721  -0.51148   1.23774
O     1.42655   0.21260   2.49268
C    -0.35723  -1.18941   0.75548
C    -1.26255  -2.09658  -0.04972
O    -2.39909  -2.32604   0.45155
O    -0.83044  -2.54129  -1.14572
H    -3.12730   0.35585   1.01121
H    -2.12712   1.44380   2.02611
H    -3.12779   2.11547   0.69856
H     1.39779  -1.39835  -0.42738
H    -0.73409  -0.87477   1.73145
22

C    -2.50262   1.26393   1.01135
C    -1.38180   1.06318   0.07603
O    -0.16673   1.59633   0.30959
C     0.65377   1.17306  -0.64580
C     1.94254   1.72024  -0.80234
N     3.02834   2.12400  -0.92443
O    -0.04382   0.68876  -1.67734
C    -1.39033   0.54826  -1.25650
O    -2.24455   0.07978  -1.97903
C     0.96314  -0.97156   0.47974
C     1.92122  -0.37158   1.49110
O     3.14935  -0.50880   1.23845
O     1.42745   0.21423   2.49223
C    -0.34932  -1.20896   0.76469
C    -1.26155  -2.10137  -0.04871
O    -2.40053  -2.32539   0.45000
O    -0.83215  -2.54270  -1.14734
H    -3.12546   0.35525   1.01198
H    -2.12553   1.44442   2.02584
H    -3.13036   2.11516   0.70108
H     1.39897  -1.40202  -0.42529
H    -0.73377  -0.87698   1.73229
22

C    -2.50274   1.26646   1.01240
C    -1.38705   1.07779   0.06854
O    -0.16776   1.59763   0.30605
C     0.64810   1.19455  -0.65693
C     1.94276   1.72463  -0.80367
N     3.03162   2.12245  -0.92310
O    -0.04487   0.69331  -1.67794
C    -1.39417   0.55277  -1.25759
O    -2.24578   0.07824  -1.98030
C     0.96730  -0.99625   0.49320
C     1.92251  -0.37568   1.49387
O     3.15149  -0.50611   1.23915
O     1.42836   0.21585   2.49177
C    -0.34140  -1.22851   0.77390
C    -1.26054  -2.10615  -0.04771
O    -2.40197  -2.32475   0.44845
O    -0.83386  -2.54412  -1.14896
H    -3.12361   0.35466   1.01276
H    -2.12395   1.44504   2.02556
H    -3.13294   2.11484   0.70359
H     1.40015  -1.40569  -0.42319
H    -0.73345  -0.87919   1.73313
22

C    -2.50287   1.26899   1.01344
C    -1.39230   1.09240   0.06104
O    -0.16879   1.59894   0.30252
C     0.64242   1.21604  -0.66806
C     1.94299   1.72902  -0.80500
N     3.03491   2.12091  -0.92177
O    -0.04592   0.69786  -1.67853
C    -1.39801   0.55727  -1.25867
O    -2.24700   0.07669  -1.98157
C     0.97146  -1.02094   0.50665
C     1.92381  -0.37978   1.49664
O     3.15363  -0.50343   1.23986
O     1.42926   0.21748   2.49132
C    -0.33348  -1.24805   0.78311
C    -1.25954  -2.11094  -0.04670
O    -2.40342  -2.32411   0.44691
O    -0.83557  -2.54554  -1.15058
H    -3.12177   0.35407   1.01354
H    -2.12236   1.44566   2.02528
H    -3.13552   2.11453   0.70611
H     1.40133  -1.40937  -0.42109
H    -0.73313  -0.88140   1.73397
22

C    -2.50299   1.27152   1.01449
C    -1.39755   1.10700   0.05355
O    -0.16983   1.60024   0.29898
C     0.63674   1.23754  -0.67918
C     1.94321   1.73342  -0.80634
N     3.03819   2.11937  -0.92045
O    -0.04697   0.70241  -1.67913
C    -1.40184   0.56178  -1.25976
O    -2.24822   0.07514  -1.98284
C     0.97561  -1.04562   0.52011
C     1.92511  -0.38388   1.49940
O     3.15577  -0.50075   1.24056
O     1.43016   0.21910   2.49086
C    -0.32557  -1.26760   0.79231
C    -1.25853  -2.11573  -0.04570
O    -2.40486  -2.32347   0.44536
O    -0.83728  -2.54695  -1.15220
H    -3.11992   0.35347   1.01432
H    -2.12078   1.44629   2.02501
H    -3.13810   2.11422   0.70863
H     1.40251  -1.41304  -0.41900
H    -0.73281  -0.88361   1.73481
22

C    -2.50311   1.27405   1.01554
C    -1.40280   1.12161   0.04606
O    -0.17086   1.60154   0.29545
C     0.63106   1.25903  -0.69031
C     1.94344   1.73781  -0.80767
N     3.04147   2.11783  -0.91912
O    -0.04802   0.70696  -1.67972
C    -1.40568   0.56629  -1.26085
O    -2.24945   0.07360  -1.98411
C     0.97977  -1.07031   0.53356
C     1.92641  -0.38798   1.50217
O     3.15792  -0.49807   1.24127
O     1.43107   0.22072   2.49041
C    -0.31765  -1.28715   0.80152
C    -1.25753  -2.12052  -0.04470
O    -2.40630  -2.32283   0.44381
O    -0.83899  -2.54837  -1.15382
H    -3.11808   0.35288   1.01510
H    -2.11919   1.44691   2.02473
H    -3.14068   2.11390   0.71115
H     1.40370  -1.41672  -0.41690
H    -0.73249  -0.88582   1.73564
22

C    -2.50324   1.27658   1.01659
C    -1.40805   1.13622   0.03856
O    -0.17189   1.60284   0.29191
C     0.62539   1.28052  -0.70144
C     1.94366   1.74221  -0.80901
N     3.04476   2.11628  -0.91779
O    -0.04907   0.71152  -1.68032
C    -1.40952   0.57080  -1.26194
O    -2.25067   0.07205  -1.98539
C     0.98393  -1.09500   0.54702
C     1.92770  -0.39208   1.50494
O     3.16006  -0.49538   1.24197
O     1.43197   0.22235   2.48995
C    -0.30974  -1.30670   0.81073
C    -1.25652  -2.12530  -0.04369
O    -2.40774  -2.32219   0.44226
O    -0.84070  -2.54978  -1.15544
H    -3.11623   0.35228   1.01588
H    -2.11761   1.44753   2.02445
H    -3.14326   2.11359   0.71367
H     1.40488  -1.42039  -0.41481
H    -0.73217  -0.88803   1.73648
22

C    -2.50336   1.27911   1.01763
C    -1.41331   1.15083   0.03107
O    -0.17292   1.60414   0.28837
C     0.61971   1.30201  -0.71256
C     1.94389   1.74660  -0.81034
N     3.04804   2.11474  -0.91646
O    -0.05012   0.71607  -1.68092
C    -1.41336   0.57530  -1.26302
O    -2.25189   0.07051  -1.98666
C     0.98809  -1.11968   0.56048
C     1.92900  -0.39618   1.50771
O     3.16220  -0.49270   1.24268
O     1.43287   0.22397   2.48950
C    -0.30182  -1.32625   0.81994
C    -1.25552  -2.13009  -0.04269
O    -2.40918  -2.32155   0.44071
O    -0.84241  -2.55120  -1.15707
H    -3.11439   0.35169   1.01666
H    -2.11602   1.44815   2.02418
H    -3.14584   2.11328   0.71618
H     1.40606  -1.42406  -0.41271
H    -0.73185  -0.89024   1.73732
22

C    -2.50349   1.28164   1.01868
C    -1.41856   1.16543   0.02358
O    -0.17396   1.60544   0.28484
C     0.61403   1.32350  -0.72369
C     1.94411   1.75099  -0.81167
N     3.05133   2.11320  -0.91513
O    -0.05117   0.72062  -1.68151
C    -1.41720   0.57981  -1.26411
O    -2.25312   0.06896  -1.98793
C     0.99225  -1.14437   0.57393
C     1.93030  -0.40029   1.51048
O     3.16434  -0.49002   1.24338
O     1.43378   0.22560   2.48904
C    -0.29391  -1.34579   0.82915
C    -1.25451  -2.13488  -0.04168
O    -2.41063  -2.32091   0.43916
O    -0.84412  -2.55262  -1.15869
H    -3.11254   0.35110   1.01744
H    -2.11444   1.44878   2.02390
H    -3.14842   2.11296   0.71870
H     1.40724  -1.42774  -0.41062
H    -0.73152  -0.89245   1.73816
22

C    -2.50361   1.28417   1.01973
C    -1.42381   1.18004   0.01608
O    -0.17499   1.60674   0.28130
C     0.60836   1.34499  -0.73482
C     1.94433   1.75539  -0.81301
N     3.05461   2.11166  -0.91380
O    -0.05222   0.72517  -1.68211
C    -1.42103   0.58432  -1.26520
O    -2.25434   0.06742  -1.98920
C     0.99641  -1.16906   0.58739
C     1.93160  -0.40439   1.51325
O     3.16649  -0.48733   1.24409
O     1.43468   0.22722   2.48859
C    -0.28599  -1.36534   0.83836
C    -1.25351  -2.13967  -0.04068
O    -2.41207  -2.32026   0.43761
O    -0.84582  -2.55403  -1.16031
H    -3.11070   0.35050   1.01822
H    -2.11285   1.44940   2.02362
H    -3.15100   2.11265   0.72122
H     1.40842  -1.43141  -0.40852
H    -0.73120  -0.89466   1.73900
22

C    -2.50374   1.28670   1.02078
C    -1.42906   1.19465   0.00859
O    -0.17602   1.60804   0.27776
C     0.60268   1.36648  -0.74594
C     1.94456   1.75978  -0.81434
N     3.05790   2.11011  -0.91247
O    -0.05327   0.72972  -1.68270
C    -1.42487   0.58883  -1.26628
O    -2.25556   0.06587  -1.99047
C     1.00057  -1.19374   0.60085
C     1.93289  -0.40849   1.51602
O     3.16863  -0.48465   1.24479
O     1.43558   0.22884   2.48813
C    -0.27808  -1.38489   0.84757
C    -1.25250  -2.14445  -0.03967
O    -2.41351  -2.31962   0.43606
O    -0.84753  -2.55545  -1.16193
H    -3.10885   0.34991   1.01900
H    -2.11127   1.45002   2.02335
H    -3.15357   2.11234   0.72374
H     1.40960  -1.43508  -0.40643
H    -0.73088  -0.89687   1.73984
22

C    -2.50361   1.28417   1.01973
C    -1.42381   1.18004   0.01608
O    -0.17499   1.60674   0.28130
C     0.60836   1.34499  -0.73482
C     1.94433   1.75539  -0.81301
N     3.05461   2.11166  -0.91380
O    -0.05222   0.72517  -1.68211
C    -1.42103   0.58432  -1.26520
O    -2.25434   0.06742  -1.98920
C     0.99641  -1.16906   0.58739
C     1.93160  -0.40439   1.51325
O     3.16649  -0.48733   1.24409
O     1.43468   0.22722   2.48859
C    -0.28599  -1.36534   0.83836
C    -1.25351  -2.13967  -0.04068
O    -2.41207  -2.32026   0.43761
O    -0.84582  -2.55403  -1.16031
H    -3.11070   0.35050   1.01822
H    -2.11285   1.44940   2.02362
H    -3.15100   2.11265   0.72122
H     1.40842  -1.43141  -0.40852
H    -0.73120  -0.89466   1.73900
22

C    -2.50349   1.28164   1.01868
C    -1.41856   1.16543   0.02358
O    -0.17396   1.60544   0.28484
C     0.61403   1.32350  -0.72369
C     1.94411   1.75099  -0.81167
N     3.05133   2.11320  -0.91513
O    -0.05117   0.72062  -1.68151
C    -1.41720   0.57981  -1.26411
O    -2.25312   0.06896  -1.98793
C     0.99225  -1.14437   0.57393
C     1.93030  -0.40029   1.51048
O     3.16434  -0.49002   1.24338
O     1.43378   0.22560   2.48904
C    -0.29391  -1.34579   0.82915
C    -1.25451  -2.13488  -0.04168
O    -2.41063  -2.32091   0.43916
O    -0.84412  -2.55262  -1.15869
H    -3.11254   0.35110   1.01744
H    -2.11444   1.44878   2.02390
H    -3.14842   2.11296   0.71870
H     1.40724  -1.42774  -0.41062
H    -0.73152  -0.89245   1.73816
22

C    -2.50336   1.27911   1.01763
C    -1.41331   1.15083   0.03107
O    -0.17292   1.60414   0.28837
C     0.61971   1.30201  -0.71256
C     1.94389   1.74660  -0.81034
N     3.04804   2.11474  -0.91646
O    -0.05012   0.71607  -1.68092
C    -1.41336   0.57530  -1.26302
O    -2.25189   0.07051  -1.98666
C     0.98809  -1.11968   0.56048
C     1.92900  -0.39618   1.50771
O     3.16220  -0.49270   1.24268
O     1.43287   0.22397   2.48950
C    -0.30182  -1.32625   0.81994
C    -1.25552  -2.13009  -0.04269
O    -2.40918  -2.32155   0.44071
O    -0.84241  -2.55120  -1.15707
H    -3.11439   0.35169   1.01666
H    -2.11602   1.44815   2.02418
H    -3.14584   2.11328   0.71618
H     1.40606  -1.42406  -0.41271
H    -0.73185  -0.89024   1.73732
22

C    -2.50324   1.27658   1.01659
C    -1.40805   1.13622   0.03856
O    -0.17189   1.60284   0.29191
C     0.62539   1.28052  -0.70144
C     1.94366   1.74221  -0.80901
N     3.04476   2.11628  -0.91779
O    -0.04907   0.71152  -1.68032
C    -1.40952   0.57080  -1.26194
O    -2.25067   0.07205  -1.98539
C     0.98393  -1.09500   0.54702
C     1.92770  -0.39208   1.50494
O     3.16006  -0.49538   1.24197
O     1.43197   0.22235   2.48995
C    -0.30974  -1.30670   0.81073
C    -1.25652  -2.12530  -0.04369
O    -2.40774  -2.32219   0.44226
O    -0.84070  -2.54978  -1.15544
H    -3.11623   0.35228   1.01588
H    -2.11761   1.44753   2.02445
H    -3.14326   2.11359   0.71367
H     1.40488  -1.42039  -0.41481
H    -0.73217  -0.88803   1.73648
22

C    -2.50311   1.27405   1.01554
C    -1.40280   1.12161   0.04606
O    -0.17086   1.60154   0.29545
C     0.63106   1.25903  -0.69031
C     1.94344   1.73781  -0.80767
N     3.04147   2.11783  -0.91912
O    -0.04802   0.70696  -1.67972
C    -1.40568   0.56629  -1.26085
O    -2.24945   0.07360  -1.98411
C     0.97977  -1.07031   0.53356
C     1.92641  -0.38798   1.50217
O     3.15792  -0.49807   1.24127
O     1.43107   0.22072   2.49041
C    -0.31765  -1.28715   0.80152
C    -1.25753  -2.12052  -0.04470
O    -2.40630  -2.32283   0.44381
O    -0.83899  -2.54837  -1.15382
H    -3.11808   0.35288   1.01510
H    -2.11919   1.44691   2.02473
H    -3.14068   2.11390   0.71115
H     1.40370  -1.41672  -0.41690
H    -0.73249  -0.88582   1.73564
22

C    -2.50299   1.27152   1.01449
C    -1.39755   1.10700   0.05355
O    -0.16983   1.60024   0.29898
C     0.63674   1.23754  -0.67918
C     1.94321   1.73342  -0.80634
N     3.03819   2.11937  -0.92045
O    -0.04697   0.70241  -1.67913
C    -1.40184   0.56178  -1.25976
O    -2.24822   0.07514  -1.98284
C     0.97561  -1.04562   0.52011
C     1.92511  -0.38388   1.49940
O     3.15577  -0.50075   1.24056
O     1.43016   0.21910   2.49086
C    -0.32557  -1.26760   0.79231
C    -1.25853  -2.11573  -0.04570
O    -2.40486  -2.32347   0.44536
O    -0.83728  -2.54695  -1.15220
H    -3.11992   0.35347   1.01432
H    -2.12078   1.44629   2.02501
H    -3.13810   2.11422   0.70863
H     1.40251  -1.41304  -0.41900
H    -0.73281  -0.88361   1.73481
22

C    -2.50287   1.26899   1.01344
C    -1.39230   1.09240   0.06104
O    -0.16879   1.59894   0.30252
C     0.64242   1.21604  -0.66806
C     1.94299   1.72902  -0.80500
N     3.03491   2.12091  -0.92177
O    -0.04592   0.69786  -1.67853
C    -1.39801   0.55727  -1.25867
O    -2.24700   0.07669  -1.98157
C     0.97146  -1.02094   0.50665
C     1.92381  -0.37978   1.49664
O     3.15363  -0.50343   1.23986
O     1.42926   0.21748   2.49132
C    -0.33348  -1.24805   0.78311
C    -1.25954  -2.11094  -0.04670
O    -2.40342  -2.32411   0.44691
O    -0.83557  -2.54554  -1.15058
H    -3.12177   0.35407   1.01354
H    -2.12236   1.44566   2.02528
H    -3.13552   2.11453   0.70611
H     1.40133  -1.40937  -0.42109
H    -0.73313  -0.88140   1.73397
22

C    -2.50274   1.26646   1.01240
C    -1.38705   1.07779   0.06854
O    -0.16776   1.59763   0.30605
C     0.64810   1.19455  -0.65693
C     1.94276   1.72463  -0.80367
N     3.03162   2.12245  -0.92310
O    -0.04487   0.69331  -1.67794
C    -1.39417   0.55277  -1.25759
O    -2.24578   0.07824  -1.98030
C     0.96730  -0.99625   0.49320
C     1.92251  -0.37568   1.49387
O     3.15149  -0.50611   1.23915
O     1.42836   0.21585   2.49177
C    -0.34140  -1.22851   0.77390
C    -1.26054  -2.10615  -0.04771
O    -2.40197  -2.32475   0.44845
O    -0.83386  -2.54412  -1.14896
H    -3.12361   0.35466   1.01276
H    -2.12395   1.44504   2.02556
H    -3.13294   2.11484   0.70359
H     1.40015  -1.40569  -0.42319
H    -0.73345  -0.87919   1.73313
22

C    -2.50262   1.26393   1.01135
C    -1.38180   1.06318   0.07603
O    -0.16673   1.59633   0.30959
C     0.65377   1.17306  -0.64580
C     1.94254   1.72024  -0.80234
N     3.02834   2.12400  -0.92443
O    -0.04382   0.68876  -1.67734
C    -1.39033   0.54826  -1.25650
O    -2.24455   0.07978  -1.97903
C     0.96314  -0.97156   0.47974
C     1.92122  -0.37158   1.49110
O     3.14935  -0.50880   1.23845
O     1.42745   0.21423   2.49223
C    -0.34932  -1.20896   0.76469
C    -1.26155  -2.10137  -0.04871
O    -2.40053  -2.32539   0.45000
O    -0.83215  -2.54270  -1.14734
H    -3.12546   0.35525   1.01198
H    -2.12553   1.44442   2.02584
H    -3.13036   2.11516   0.70108
H     1.39897  -1.40202  -0.42529
H    -0.73377  -0.87698   1.73229
22

C    -2.50249   1.26140   1.01030
C    -1.37654   1.04857   0.08353
O    -0.16569   1.59503   0.31313
C     0.65945   1.15157  -0.63468
C     1.94232   1.71584  -0.80100
N     3.02505   2.12554  -0.92576
O    -0.04276   0.68421  -1.67675
C    -1.38649   0.54375  -1.25541
O    -2.24333   0.08133  -1.97776
C     0.95898  -0.94688   0.46628
C     1.91992  -0.36748   1.48833
O     3.14721  -0.51148   1.23774
O     1.42655   0.21260   2.49268
C    -0.35723  -1.18941   0.75548
C    -1.26255  -2.09658  -0.04972
O    -2.39909  -2.32604   0.45155
O    -0.83044  -2.54129  -1.14572
H    -3.12730   0.35585   1.01121
H    -2.12712   1.44380   2.02611
H    -3.12779   2.11547   0.69856
H     1.39779  -1.39835  -0.42738
H    -0.73409  -0.87477   1.73145
22

C    -2.50237   1.25887   1.00925
C    -1.37129   1.03397   0.09102
O    -0.16466   1.59373   0.31666
C     0.66513   1.13008  -0.62355
C     1.94209   1.71145  -0.79967
N     3.02177   2.12708  -0.92709
O    -0.04171   0.67966  -1.67615
C    -1.38266   0.53924  -1.25433
O    -2.24211   0.08287  -1.97649
C     0.95482  -0.92219   0.45283
C     1.91862  -0.36338   1.48556
O     3.14506  -0.51416   1.23704
O     1.42565   0.21098   2.49314
C    -0.36515  -1.16986   0.74627
C    -1.26356  -2.09179  -0.05072
O    -2.39765  -2.32668   0.45310
O    -0.82873  -2.53987  -1.14410
H    -3.12915   0.35644   1.01043
H    -2.12870   1.44317   2.02639
H    -3.12521   2.11578   0.69604
H     1.39661  -1.39467  -0.42948
H    -0.73441  -0.87256   1.73061
22

C    -2.50224   1.25634   1.00821
C    -1.36604   1.01936   0.09851
O    -0.16363   1.59243   0.32020
C     0.67080   1.10859  -0.61242
C     1.94187   1.70705  -0.79834
N     3.01848   2.12863  -0.92842
O    -0.04066   0.67511  -1.67556
C    -1.37882   0.53473  -1.25324
O    -2.24088   0.08442  -1.97522
C     0.95066  -0.89750   0.43937
C     1.91732  -0.35928   1.48279
O     3.14292  -0.51684   1.23633
O     1.42474   0.20936   2.49359
C    -0.37306  -1.15032   0.73706
C    -1.26456  -2.08700  -0.05172
O    -2.39621  -2.32732   0.45465
O    -0.82702  -2.53845  -1.14248
H    -3.13099   0.35704   1.00965
H    -2.13028   1.44255   2.02667
H    -3.12263   2.11610   0.69352
H     1.39543  -1.39100  -0.43157
H    -0.73473  -0.87035   1.72977
22

C    -2.50212   1.25381   1.00716
C    -1.36079   1.00475   0.10601
O    -0.16260   1.59113   0.32374
C     0.67648   1.08710  -0.60130
C     1.94164   1.70266  -0.79700
N     3.01520   2.13017  -0.92975
O    -0.03961   0.67056  -1.67496
C    -1.37498   0.53023  -1.25215
O    -2.23966   0.08596  -1.97395
C     0.94650  -0.87282   0.42591
C     1.91603  -0.35518   1.48002
O     3.14078  -0.51953   1.23563
O     1.42384   0.20773   2.49405
C    -0.38098  -1.13077   0.72785
C    -1.26557  -2.08222  -0.05273
O    -2.39476  -2.32796   0.45620
O    -0.82531  -2.53704  -1.14086
H    -3.13284   0.35763   1.00887
H    -2.13187   1.44193   2.02694
H    -3.12005   2.11641   0.69100
H     1.39425  -1.38733  -0.43367
H    -0.73505  -0.86814   1.72893
22

C    -2.50199   1.25128   1.00611
C    -1.35554   0.99015   0.11350
O    -0.16156   1.58983   0.32727
C     0.68216   1.06561  -0.59017
C     1.94142   1.69827  -0.79567
N     3.01191   2.13171  -0.93107
O    -0.03856   0.66601  -1.67436
C    -1.37114   0.52572  -1.25106
O    -2.23844   0.08751  -1.97268
C     0.94234  -0.84813   0.41246
C     1.91473  -0.35108   1.47725
O     3.13864  -0.52221   1.23493
O     1.42294   0.20611   2.49450
C    -0.38889  -1.11122   0.71864
C    -1.26657  -2.07743  -0.05373
O    -2.39332  -2.32860   0.45775
O    -0.82360  -2.53562  -1.13924
H    -3.13468   0.35822   1.00809
H    -2.13345   1.44131   2.02722
H    -3.11747   2.11672   0.68848
H     1.39307  -1.38365  -0.43576
H    -0.73537  -0.86593   1.72809
22

C    -2.50187   1.24875   1.00506
C    -1.35028   0.97554   0.12099
O    -0.16053   1.58853   0.33081
C     0.68783   1.04412  -0.57904
C     1.94119   1.69387  -0.79433
N     3.00863   2.13325  -0.93240
O    -0.03751   0.66146  -1.67377
C    -1.36730   0.52121  -1.24998
O    -2.23721   0.08905  -1.97141
C     0.93818  -0.82344   0.39900
C     1.91343  -0.34698   1.47448
O     3.13649  -0.52489   1.23422
O     1.42203   0.20449   2.49496
C    -0.39681  -1.09167   0.70943
C    -1.26758  -2.07264  -0.05474
O    -2.39188  -2.32924   0.45930
O    -0.82189  -2.53420  -1.13762
H    -3.13653   0.35882   1.00731
H    -2.13504   1.44069   2.02749
H    -3.11489   2.11704   0.68597
H     1.39189  -1.37998  -0.43786
H    -0.73569  -0.86372   1.72725
22

C    -2.50175   1.24622   1.00402
C    -1.34503   0.96093   0.12849
O    -0.15950   1.58723   0.33435
C     0.69351   1.02263  -0.56791
C     1.94097   1.68948  -0.79300
N     3.00535   2.13480  -0.93373
O    -0.03646   0.65690  -1.67317
C    -1.36347   0.51670  -1.24889
O    -2.23599   0.09060  -1.97014
C     0.93402  -0.79876   0.38554
C     1.91213  -0.34288   1.47171
O     3.13435  -0.52758   1.23352
O     1.42113   0.20286   2.49542
C    -0.40472  -1.07212   0.70023
C    -1.26858  -2.06785  -0.05574
O    -2.39044  -2.32988   0.46085
O    -0.82018  -2.53279  -1.13600
H    -3.13837   0.35941   1.00653
H    -2.13662   1.44006   2.02777
H    -3.11231   2.11735   0.68345
H     1.39070  -1.37630  -0.43995
H    -0.73601  -0.86151   1.72642
22

C    -2.50162   1.24369   1.00297
C    -1.33978   0.94632   0.13598
O    -0.15847   1.58592   0.33788
C     0.69919   1.00114  -0.55679
C     1.94074   1.68508  -0.79167
N     3.00206   2.13634  -0.93506
O    -0.03541   0.65235  -1.67258
C    -1.35963   0.51220  -1.24780
O    -2.23477   0.09215  -1.96887
C     0.92986  -0.77407   0.37209
C     1.91084  -0.33878   1.46894
O     3.13221  -0.53026   1.23281
O     1.42023   0.20124   2.49587
C    -0.41264  -1.05258   0.69102
C    -1.26959  -2.06307  -0.05674
O    -2.38900  -2.33052   0.46239
O    -0.81847  -2.53137  -1.13438
H    -3.14022   0.36001   1.00575
H    -2.13821   1.43944   2.02805
H    -3.10973   2.11766   0.68093
H     1.38952  -1.37263  -0.44205
H    -0.73633  -0.85931   1.72558
22

C    -2.50150   1.24116   1.00192
C    -1.33453   0.93172   0.14347
O    -0.15743   1.58462   0.34142
C     0.70487   0.97965  -0.54566
C     1.94052   1.68069  -0.79033
N     2.99878   2.13788  -0.93639
O    -0.03436   0.64780  -1.67198
C    -1.35579   0.50769  -1.24672
O    -2.23354   0.09369  -1.96760
C     0.92570  -0.74938   0.35863
C     1.90954  -0.33468   1.46617
O     3.13007  -0.53294   1.23211
O     1.41932   0.19961   2.49633
C    -0.42055  -1.03303   0.68181
C    -1.27059  -2.05828  -0.05775
O    -2.38755  -2.33116   0.46394
O    -0.81676  -2.52996  -1.13276
H    -3.14206   0.36060   1.00497
H    -2.13979   1.43882   2.02832
H    -3.10715   2.11798   0.67841
H     1.38834  -1.36896  -0.44414
H    -0.73665  -0.85710   1.72474
22

C    -2.50137   1.23863   1.00087
C    -1.32928   0.91711   0.15097
O    -0.15640   1.58332   0.34495
C     0.71054   0.95816  -0.53453
C     1.94030   1.67630  -0.78900
N     2.99549   2.13942  -0.93772
O    -0.03331   0.64325  -1.67139
C    -1.35195   0.50318  -1.24563
O    -2.23232   0.09524  -1.96633
C     0.92154  -0.72470   0.34518
C     1.90824  -0.33057   1.46340
O     3.12792  -0.53562   1.23140
O     1.41842   0.19799   2.49678
C    -0.42847  -1.01348   0.67260
C    -1.27160  -2.05349  -0.05875
O    -2.38611  -2.33181   0.46549
O    -0.81505  -2.52854  -1.13114
H    -3.14391   0.36119   1.00419
H    -2.14138   1.43820   2.02860
H    -3.10458   2.11829   0.67589
H     1.38716  -1.36528  -0.44624
H    -0.73697  -0.85489   1.72390
