17

O 3.481850979 -2.426113868 -2.410183174
C 3.436276057 -1.381059851 0.075764827
C 1.052897420 -0.033510211 0.681165312
C -1.459046675 -1.250063053 0.883679607
C -3.157863747 -0.822376193 -1.431542618
C -0.479032533 4.076674667 1.435101048
O 1.255478857 2.392396184 0.949139191
H 3.238541427 -1.068658926 -3.588242333
H 5.028626489 -0.092818472 0.377632570
H 3.687706084 -3.010906209 1.319762464
H -3.334879420 1.180732649 -1.893492179
H -2.409769135 -0.531055182 2.589939252
H -1.177467599 -3.274695573 1.159143284
H -5.054051450 -1.562066984 -1.100629766
H -2.364712792 -1.783522779 -3.072073110
H -2.427539062 3.526894869 1.659395552
H 0.234515352 5.958615838 1.718473455

