17

C 3.928842961 1.235206518 0.528734201
C 1.311545954 0.276744589 0.914550476
C -0.643656516 -3.418654172 0.347838146
C -1.928838334 -1.718937458 -1.394065683
C -3.072992235 0.672849459 -0.296403014
C -0.744082421 2.203627359 0.526507556
O 0.744529624 -1.342325757 -1.731403150
H 4.129347816 2.269291242 -1.274294010
H 5.340164715 -0.267418394 0.576519876
H 4.368862646 2.546735445 2.064163909
H -0.802449446 -3.345269228 2.371555944
H 0.057395745 -5.166698874 -0.458749177
H -2.793293191 -2.513857537 -3.076981239
H -4.311161201 0.202359489 1.284848225
H -4.200763514 1.666157181 -1.706633376
H -0.258760179 3.569600582 -0.978479646
H -1.085573166 3.265773004 2.260881412

