16

C -2.636705703 2.041640660 2.038370470
C -2.368876237 -2.022637026 -0.679279573
N -2.399679302 0.869820186 -0.441173174
C -0.110799839 -0.477725278 -1.306564901
C 2.173682211 -0.480607375 0.396588224
C 4.431761708 -1.714137290 -0.820317752
O 4.591154891 -2.268495516 -3.012544450
H -1.613512964 3.833039836 2.115603444
H -4.633700430 2.363792949 2.424800225
H -1.913499484 0.729404880 3.440902825
H -3.439200031 -2.453232250 -2.395077535
H -3.204737818 1.904565860 -1.830924216
H 0.360442638 0.041984423 -3.243081154
H 1.771598532 -1.491725501 2.153322113
H 2.792544028 1.431160157 0.923350987
H 6.034456462 -2.072528403 0.483958407

