16

C -3.327178842 1.169449661 2.251021899
C -1.866445625 -1.427072188 0.070361420
N -1.677901149 1.842178971 -0.603706440
C 0.125169203 -0.083212540 -1.310550031
C 2.714082070 0.187609496 -0.159366349
C 4.467365924 -1.937142547 -0.854435774
O 4.020229606 -3.524992425 -2.411991586
H -1.930615074 1.296698622 3.739097280
H -4.307494603 2.985524107 2.069318930
H -4.749407265 -0.236668506 2.739955803
H -3.335297484 -2.068022805 -1.243340693
H -2.949328633 2.126774503 -2.008658098
H 0.148499838 -0.376862563 -3.342578957
H 2.581316470 0.272154350 1.901912912
H 3.622572629 1.953228311 -0.757025306
H 6.299367246 -1.945324097 0.167917038

