15

C 3.608875554 -1.115882218 -0.112352438
C 1.740104923 1.064729524 -0.329176156
C -0.486621579 0.748928604 1.411152624
O -0.385202661 0.187326132 3.602012465
N -2.975415282 1.117093136 0.261405796
C -3.705934249 -1.277784958 -1.209108323
H 2.761487551 -2.857350900 -0.816376482
H 5.306357685 -0.721115143 -1.210695542
H 4.149489688 -1.408030684 1.852706730
H 2.651269331 2.829580335 0.257751179
H 1.108982923 1.303661223 -2.276416870
H -3.046884421 2.603723217 -0.946768190
H -2.356189031 -1.392104733 -2.773297923
H -3.341047826 -2.824785911 0.112584572
H -4.262157144 1.395100233 1.660454687

