13

C 3.191738070 0.346634920 0.190634022
C 0.206366521 0.477731381 -1.031155932
C -0.158561250 -1.643354517 0.601214533
N -4.226221432 -1.448366075 0.421678042
C -4.554132038 0.687205689 0.031276536
O -0.950818194 2.558734696 -0.529542381
H 4.050108954 1.639493769 -1.154955991
H 3.191524720 1.205522435 2.054096487
H 4.244972731 -1.420448679 0.150933654
H 0.478467864 -0.064773141 -3.026379929
H 0.319720628 -3.543325962 0.004065292
H -0.394052249 -1.302700959 2.601456150
H -5.415260126 2.485665166 -0.285959196

