13

C 3.164203797 -1.041096345 0.322909975
C 0.066354898 0.733331655 -1.239119007
C -2.080861547 -0.909472763 -0.741959294
C -2.884220387 1.171714876 1.063698679
O -0.553172499 2.563799880 0.410454750
H 4.215685812 0.711737320 0.535778401
H 3.029274933 -1.970228287 2.169636837
H 4.054620259 -2.280980199 -1.061398504
H 1.170431185 1.183591861 -2.911618619
H -3.223426736 -1.797912364 -2.179016077
H 0.530832818 -1.523462563 0.043933430
H -2.910444910 0.770771230 3.092469207
H -4.527425427 2.316063532 0.557966904

