17

C 2.601942396 1.581331476 0.890922928
C 1.327495356 -0.690378615 -0.330954161
C -0.394124890 -2.115140405 1.528183571
C -2.468979168 -0.532448534 2.602223833
O -4.367158812 -2.034669044 3.130010979
C -0.478238433 2.177203036 -3.713584560
C -0.133071906 -0.082031669 -2.696522829
H 3.896700231 2.499919503 -0.426139005
H 3.693066424 0.991459910 2.540225566
H 1.208772934 2.961690257 1.522878827
H 2.805055999 -2.034611899 -0.886763848
H 0.717287276 -2.641162471 3.205975796
H -1.106405809 -3.882567196 0.708471212
H -5.687356594 -1.036602954 3.886548206
H -1.574944674 2.401992138 -5.427108255
H 0.302714113 3.879702107 -2.886545808
H -0.985728050 -1.711875590 -3.619140187

