10

O 4.066347994 0.813771060 0.197582072
C 1.858917447 -0.490437522 0.774981465
C -0.436212284 0.935443685 -0.163736038
O -0.219410696 2.921384875 -1.285331333
C -2.985141683 0.008672010 0.525673488
O -3.847573002 -1.469438524 -1.224815103
H 3.554354933 2.311620918 -0.719184712
H 1.838828033 -2.370075778 -0.112166735
H 1.669491130 -0.778076817 2.818946110
H -5.535295038 -2.005159440 -0.781520843

