25

C     3.95613  -0.72332   1.90310
O     3.01402   0.09261   1.18807
C     3.10441   0.06385  -0.13702
O     3.87296  -0.61140  -0.79520
N     2.18699   0.96974  -0.63358
N     1.73329   0.93397  -1.77169
N     1.09951   1.10278  -2.72577
C    -0.91879   1.30688  -0.89347
C    -1.38758  -0.11324  -1.27703
O    -0.35011  -0.93510  -0.73963
C    -0.33108  -0.33774   0.55652
C    -1.82895  -0.52907   0.94751
C    -2.32406  -0.64016   2.25814
N    -2.70498  -0.73968   3.35563
C    -2.50010  -0.38154  -0.21574
C    -3.88282  -0.29183  -0.44663
N    -5.02479  -0.21753  -0.67056
C    -0.26859   1.17268   0.21898
H     3.82612  -1.77722   1.62363
H     4.97668  -0.39613   1.66161
H     3.74951  -0.58076   2.96792
H    -1.13748   2.19536  -1.46642
H    -1.62843  -0.37826  -2.31981
H     0.41372  -0.82706   1.22148
H     0.21645   1.88484   0.87797
25

C     3.95585  -0.72302   1.90276
O     3.01174   0.09309   1.19079
C     3.09819   0.06546  -0.13483
O     3.86890  -0.60524  -0.79418
N     2.17082   0.96400  -0.62927
N     1.73651   0.93353  -1.77747
N     1.07654   1.10639  -2.70662
C    -0.90165   1.30244  -0.90700
C    -1.38478  -0.11445  -1.27877
O    -0.35042  -0.93940  -0.74002
C    -0.32817  -0.34080   0.55552
C    -1.82643  -0.52378   0.94702
C    -2.32268  -0.63801   2.25744
N    -2.70460  -0.73987   3.35417
C    -2.49745  -0.37573  -0.21655
C    -3.88100  -0.28949  -0.44707
N    -5.02309  -0.21796  -0.67020
C    -0.24894   1.16586   0.21356
H     3.82616  -1.77709   1.62325
H     4.97645  -0.39579   1.66123
H     3.74988  -0.58110   2.96796
H    -1.13788   2.19484  -1.46371
H    -1.62819  -0.37924  -2.32002
H     0.41366  -0.82896   1.22143
H     0.21605   1.88382   0.87791
25

C     3.95556  -0.72272   1.90242
O     3.00946   0.09358   1.19350
C     3.09197   0.06706  -0.13265
O     3.86483  -0.59907  -0.79315
N     2.15464   0.95825  -0.62496
N     1.73973   0.93310  -1.78325
N     1.05357   1.11000  -2.68747
C    -0.88451   1.29800  -0.92054
C    -1.38199  -0.11565  -1.28051
O    -0.35072  -0.94370  -0.74040
C    -0.32526  -0.34386   0.55452
C    -1.82391  -0.51849   0.94653
C    -2.32129  -0.63586   2.25674
N    -2.70422  -0.74006   3.35271
C    -2.49481  -0.36992  -0.21735
C    -3.87918  -0.28714  -0.44750
N    -5.02140  -0.21840  -0.66983
C    -0.22929   1.15905   0.20815
H     3.82619  -1.77695   1.62287
H     4.97622  -0.39545   1.66084
H     3.75025  -0.58143   2.96801
H    -1.13827   2.19431  -1.46099
H    -1.62796  -0.38021  -2.32023
H     0.41360  -0.83087   1.22137
H     0.21565   1.88280   0.87785
25

C     3.95528  -0.72242   1.90208
O     3.00718   0.09406   1.19622
C     3.08574   0.06867  -0.13046
O     3.86077  -0.59291  -0.79213
N     2.13847   0.95251  -0.62064
N     1.74294   0.93266  -1.78904
N     1.03059   1.11362  -2.66832
C    -0.86736   1.29355  -0.93407
C    -1.37920  -0.11686  -1.28226
O    -0.35103  -0.94799  -0.74078
C    -0.32235  -0.34692   0.55352
C    -1.82139  -0.51321   0.94604
C    -2.31991  -0.63371   2.25604
N    -2.70384  -0.74025   3.35126
C    -2.49216  -0.36411  -0.21816
C    -3.87735  -0.28479  -0.44793
N    -5.01970  -0.21883  -0.66947
C    -0.20964   1.15223   0.20273
H     3.82622  -1.77681   1.62250
H     4.97599  -0.39511   1.66046
H     3.75061  -0.58176   2.96805
H    -1.13866   2.19379  -1.45827
H    -1.62772  -0.38119  -2.32043
H     0.41355  -0.83278   1.22132
H     0.21525   1.88178   0.87780
25

C     3.95499  -0.72212   1.90174
O     3.00490   0.09454   1.19894
C     3.07952   0.07027  -0.12828
O     3.85670  -0.58674  -0.79111
N     2.12229   0.94677  -0.61633
N     1.74616   0.93222  -1.79482
N     1.00762   1.11723  -2.64917
C    -0.85022   1.28911  -0.94761
C    -1.37641  -0.11806  -1.28400
O    -0.35134  -0.95229  -0.74117
C    -0.31944  -0.34998   0.55253
C    -1.81887  -0.50792   0.94555
C    -2.31852  -0.63156   2.25534
N    -2.70347  -0.74044   3.34980
C    -2.48951  -0.35830  -0.21896
C    -3.87553  -0.28244  -0.44836
N    -5.01800  -0.21927  -0.66911
C    -0.18999   1.14542   0.19731
H     3.82625  -1.77667   1.62212
H     4.97576  -0.39477   1.66008
H     3.75098  -0.58210   2.96810
H    -1.13905   2.19327  -1.45556
H    -1.62748  -0.38216  -2.32064
H     0.41349  -0.83469   1.22127
H     0.21485   1.88076   0.87774
25

C     3.95471  -0.72182   1.90140
O     3.00262   0.09502   1.20166
C     3.07330   0.07188  -0.12609
O     3.85263  -0.58058  -0.79009
N     2.10612   0.94102  -0.61202
N     1.74938   0.93178  -1.80060
N     0.98465   1.12084  -2.63002
C    -0.83308   1.28467  -0.96114
C    -1.37362  -0.11927  -1.28574
O    -0.35165  -0.95658  -0.74155
C    -0.31652  -0.35304   0.55153
C    -1.81635  -0.50264   0.94506
C    -2.31714  -0.62941   2.25464
N    -2.70309  -0.74063   3.34834
C    -2.48687  -0.35249  -0.21977
C    -3.87371  -0.28010  -0.44879
N    -5.01631  -0.21970  -0.66874
C    -0.17033   1.13860   0.19190
H     3.82629  -1.77654   1.62174
H     4.97553  -0.39444   1.65970
H     3.75134  -0.58243   2.96814
H    -1.13945   2.19274  -1.45284
H    -1.62725  -0.38314  -2.32085
H     0.41343  -0.83659   1.22121
H     0.21445   1.87974   0.87769
25

C     3.95442  -0.72152   1.90106
O     3.00034   0.09550   1.20438
C     3.06708   0.07348  -0.12391
O     3.84857  -0.57441  -0.78906
N     2.08995   0.93528  -0.60771
N     1.75260   0.93135  -1.80639
N     0.96168   1.12446  -2.61087
C    -0.81593   1.28022  -0.97468
C    -1.37083  -0.12047  -1.28749
O    -0.35196  -0.96088  -0.74194
C    -0.31361  -0.35610   0.55053
C    -1.81383  -0.49735   0.94457
C    -2.31575  -0.62726   2.25394
N    -2.70271  -0.74082   3.34688
C    -2.48422  -0.34669  -0.22058
C    -3.87188  -0.27775  -0.44922
N    -5.01461  -0.22013  -0.66838
C    -0.15068   1.13178   0.18648
H     3.82632  -1.77640   1.62137
H     4.97530  -0.39410   1.65932
H     3.75171  -0.58277   2.96819
H    -1.13984   2.19222  -1.45012
H    -1.62701  -0.38411  -2.32106
H     0.41337  -0.83850   1.22116
H     0.21405   1.87872   0.87763
25

C     3.95414  -0.72122   1.90072
O     2.99807   0.09599   1.20709
C     3.06086   0.07509  -0.12172
O     3.84450  -0.56824  -0.78804
N     2.07377   0.92954  -0.60339
N     1.75582   0.93091  -1.81217
N     0.93870   1.12807  -2.59171
C    -0.79879   1.27578  -0.98822
C    -1.36803  -0.12168  -1.28923
O    -0.35227  -0.96518  -0.74232
C    -0.31070  -0.35916   0.54953
C    -1.81130  -0.49207   0.94407
C    -2.31437  -0.62511   2.25324
N    -2.70233  -0.74101   3.34543
C    -2.48157  -0.34088  -0.22138
C    -3.87006  -0.27540  -0.44965
N    -5.01291  -0.22057  -0.66802
C    -0.13103   1.12497   0.18107
H     3.82635  -1.77626   1.62099
H     4.97506  -0.39376   1.65894
H     3.75207  -0.58310   2.96823
H    -1.14023   2.19170  -1.44741
H    -1.62678  -0.38509  -2.32126
H     0.41331  -0.84041   1.22111
H     0.21365   1.87770   0.87758
25

C     3.95385  -0.72092   1.90038
O     2.99579   0.09647   1.20981
C     3.05463   0.07670  -0.11954
O     3.84044  -0.56208  -0.78702
N     2.05760   0.92380  -0.59908
N     1.75904   0.93047  -1.81795
N     0.91573   1.13168  -2.57256
C    -0.78165   1.27133  -1.00175
C    -1.36524  -0.12288  -1.29097
O    -0.35258  -0.96947  -0.74270
C    -0.30779  -0.36222   0.54854
C    -1.80878  -0.48678   0.94358
C    -2.31298  -0.62296   2.25254
N    -2.70195  -0.74120   3.34397
C    -2.47892  -0.33507  -0.22219
C    -3.86824  -0.27306  -0.45008
N    -5.01122  -0.22100  -0.66765
C    -0.11138   1.11815   0.17565
H     3.82638  -1.77612   1.62061
H     4.97483  -0.39342   1.65856
H     3.75244  -0.58343   2.96828
H    -1.14063   2.19118  -1.44469
H    -1.62654  -0.38607  -2.32147
H     0.41325  -0.84232   1.22105
H     0.21325   1.87668   0.87752
25

C     3.95357  -0.72062   1.90004
O     2.99351   0.09695   1.21253
C     3.04841   0.07830  -0.11735
O     3.83637  -0.55591  -0.78600
N     2.04143   0.91805  -0.59477
N     1.76226   0.93004  -1.82374
N     0.89276   1.13530  -2.55341
C    -0.76450   1.26689  -1.01529
C    -1.36245  -0.12409  -1.29272
O    -0.35289  -0.97377  -0.74309
C    -0.30488  -0.36528   0.54754
C    -1.80626  -0.48150   0.94309
C    -2.31160  -0.62081   2.25184
N    -2.70157  -0.74139   3.34251
C    -2.47628  -0.32926  -0.22299
C    -3.86641  -0.27071  -0.45051
N    -5.00952  -0.22143  -0.66729
C    -0.09173   1.11134   0.17024
H     3.82642  -1.77599   1.62024
H     4.97460  -0.39308   1.65818
H     3.75281  -0.58377   2.96833
H    -1.14102   2.19065  -1.44197
H    -1.62630  -0.38704  -2.32168
H     0.41320  -0.84422   1.22100
H     0.21285   1.87566   0.87746
25

C     3.95328  -0.72032   1.89971
O     2.99123   0.09743   1.21525
C     3.04219   0.07991  -0.11516
O     3.83230  -0.54975  -0.78497
N     2.02525   0.91231  -0.59046
N     1.76548   0.92960  -1.82952
N     0.86978   1.13891  -2.53426
C    -0.74736   1.26245  -1.02882
C    -1.35966  -0.12529  -1.29446
O    -0.35320  -0.97807  -0.74347
C    -0.30197  -0.36834   0.54654
C    -1.80374  -0.47621   0.94260
C    -2.31021  -0.61867   2.25114
N    -2.70120  -0.74158   3.34105
C    -2.47363  -0.32345  -0.22380
C    -3.86459  -0.26836  -0.45094
N    -5.00783  -0.22187  -0.66692
C    -0.07208   1.10452   0.16482
H     3.82645  -1.77585   1.61986
H     4.97437  -0.39275   1.65780
H     3.75317  -0.58410   2.96837
H    -1.14141   2.19013  -1.43925
H    -1.62607  -0.38802  -2.32189
H     0.41314  -0.84613   1.22095
H     0.21245   1.87464   0.87741
25

C     3.95300  -0.72002   1.89937
O     2.98895   0.09791   1.21796
C     3.03597   0.08151  -0.11298
O     3.82824  -0.54358  -0.78395
N     2.00908   0.90657  -0.58615
N     1.76870   0.92916  -1.83531
N     0.84681   1.14252  -2.51511
C    -0.73022   1.25800  -1.04236
C    -1.35687  -0.12650  -1.29620
O    -0.35351  -0.98236  -0.74385
C    -0.29906  -0.37140   0.54554
C    -1.80122  -0.47093   0.94211
C    -2.30883  -0.61652   2.25044
N    -2.70082  -0.74177   3.33960
C    -2.47098  -0.31764  -0.22460
C    -3.86277  -0.26601  -0.45138
N    -5.00613  -0.22230  -0.66656
C    -0.05243   1.09770   0.15941
H     3.82648  -1.77571   1.61948
H     4.97414  -0.39241   1.65742
H     3.75354  -0.58443   2.96842
H    -1.14181   2.18961  -1.43654
H    -1.62583  -0.38899  -2.32209
H     0.41308  -0.84804   1.22089
H     0.21205   1.87362   0.87735
25

C     3.95271  -0.71973   1.89903
O     2.98667   0.09840   1.22068
C     3.02975   0.08312  -0.11079
O     3.82417  -0.53742  -0.78293
N     1.99290   0.90082  -0.58183
N     1.77192   0.92873  -1.84109
N     0.82384   1.14613  -2.49596
C    -0.71307   1.25356  -1.05589
C    -1.35407  -0.12770  -1.29795
O    -0.35382  -0.98666  -0.74424
C    -0.29615  -0.37446   0.54454
C    -1.79870  -0.46564   0.94162
C    -2.30744  -0.61437   2.24974
N    -2.70044  -0.74195   3.33814
C    -2.46834  -0.31183  -0.22541
C    -3.86094  -0.26367  -0.45181
N    -5.00443  -0.22274  -0.66620
C    -0.03277   1.09089   0.15399
H     3.82651  -1.77557   1.61911
H     4.97391  -0.39207   1.65704
H     3.75390  -0.58477   2.96846
H    -1.14220   2.18908  -1.43382
H    -1.62560  -0.38997  -2.32230
H     0.41302  -0.84995   1.22084
H     0.21166   1.87260   0.87730
25

C     3.95243  -0.71943   1.89869
O     2.98439   0.09888   1.22340
C     3.02352   0.08472  -0.10861
O     3.82011  -0.53125  -0.78191
N     1.97673   0.89508  -0.57752
N     1.77514   0.92829  -1.84687
N     0.80087   1.14975  -2.47681
C    -0.69593   1.24912  -1.06943
C    -1.35128  -0.12891  -1.29969
O    -0.35413  -0.99095  -0.74462
C    -0.29323  -0.37752   0.54355
C    -1.79617  -0.46035   0.94113
C    -2.30606  -0.61222   2.24904
N    -2.70006  -0.74214   3.33668
C    -2.46569  -0.30602  -0.22621
C    -3.85912  -0.26132  -0.45224
N    -5.00274  -0.22317  -0.66583
C    -0.01312   1.08407   0.14858
H     3.82655  -1.77544   1.61873
H     4.97368  -0.39173   1.65666
H     3.75427  -0.58510   2.96851
H    -1.14259   2.18856  -1.43110
H    -1.62536  -0.39094  -2.32251
H     0.41296  -0.85185   1.22079
H     0.21126   1.87158   0.87724
25

C     3.95214  -0.71913   1.89835
O     2.98211   0.09936   1.22612
C     3.01730   0.08633  -0.10642
O     3.81604  -0.52508  -0.78088
N     1.96056   0.88934  -0.57321
N     1.77836   0.92785  -1.85266
N     0.77789   1.15336  -2.45766
C    -0.67879   1.24467  -1.08296
C    -1.34849  -0.13011  -1.30143
O    -0.35444  -0.99525  -0.74501
C    -0.29032  -0.38058   0.54255
C    -1.79365  -0.45507   0.94064
C    -2.30467  -0.61007   2.24834
N    -2.69968  -0.74233   3.33522
C    -2.46304  -0.30021  -0.22702
C    -3.85730  -0.25897  -0.45267
N    -5.00104  -0.22360  -0.66547
C     0.00653   1.07726   0.14316
H     3.82658  -1.77530   1.61836
H     4.97345  -0.39139   1.65628
H     3.75464  -0.58544   2.96855
H    -1.14298   2.18804  -1.42839
H    -1.62512  -0.39192  -2.32272
H     0.41290  -0.85376   1.22073
H     0.21086   1.87056   0.87719
25

C     3.95186  -0.71883   1.89801
O     2.97983   0.09984   1.22884
C     3.01108   0.08794  -0.10424
O     3.81197  -0.51892  -0.77986
N     1.94438   0.88360  -0.56890
N     1.78158   0.92742  -1.85844
N     0.75492   1.15697  -2.43851
C    -0.66164   1.24023  -1.09650
C    -1.34570  -0.13132  -1.30318
O    -0.35475  -0.99955  -0.74539
C    -0.28741  -0.38364   0.54155
C    -1.79113  -0.44978   0.94015
C    -2.30329  -0.60792   2.24764
N    -2.69930  -0.74252   3.33376
C    -2.46040  -0.29440  -0.22782
C    -3.85547  -0.25662  -0.45310
N    -4.99934  -0.22404  -0.66510
C     0.02618   1.07044   0.13775
H     3.82661  -1.77516   1.61798
H     4.97321  -0.39106   1.65590
H     3.75500  -0.58577   2.96860
H    -1.14338   2.18751  -1.42567
H    -1.62489  -0.39290  -2.32292
H     0.41284  -0.85567   1.22068
H     0.21046   1.86954   0.87713
25

C     3.95158  -0.71853   1.89767
O     2.97755   0.10032   1.23155
C     3.00486   0.08954  -0.10205
O     3.80791  -0.51275  -0.77884
N     1.92821   0.87785  -0.56458
N     1.78480   0.92698  -1.86422
N     0.73195   1.16059  -2.41936
C    -0.64450   1.23579  -1.11003
C    -1.34291  -0.13252  -1.30492
O    -0.35506  -1.00384  -0.74577
C    -0.28450  -0.38670   0.54055
C    -1.78861  -0.44450   0.93966
C    -2.30190  -0.60577   2.24694
N    -2.69892  -0.74271   3.33231
C    -2.45775  -0.28859  -0.22863
C    -3.85365  -0.25428  -0.45353
N    -4.99765  -0.22447  -0.66474
C     0.04583   1.06362   0.13233
H     3.82664  -1.77503   1.61760
H     4.97298  -0.39072   1.65552
H     3.75537  -0.58610   2.96864
H    -1.14377   2.18699  -1.42295
H    -1.62465  -0.39387  -2.32313
H     0.41279  -0.85758   1.22063
H     0.21006   1.86852   0.87708
25

C     3.95129  -0.71823   1.89733
O     2.97527   0.10081   1.23427
C     2.99864   0.09115  -0.09987
O     3.80384  -0.50659  -0.77782
N     1.91204   0.87211  -0.56027
N     1.78802   0.92654  -1.87001
N     0.70898   1.16420  -2.40021
C    -0.62736   1.23134  -1.12357
C    -1.34012  -0.13372  -1.30666
O    -0.35537  -1.00814  -0.74616
C    -0.28159  -0.38976   0.53956
C    -1.78609  -0.43921   0.93916
C    -2.30052  -0.60362   2.24624
N    -2.69855  -0.74290   3.33085
C    -2.45510  -0.28278  -0.22943
C    -3.85183  -0.25193  -0.45396
N    -4.99595  -0.22491  -0.66438
C     0.06548   1.05681   0.12692
H     3.82668  -1.77489   1.61723
H     4.97275  -0.39038   1.65513
H     3.75573  -0.58644   2.96869
H    -1.14416   2.18647  -1.42024
H    -1.62442  -0.39485  -2.32334
H     0.41273  -0.85948   1.22057
H     0.20966   1.86750   0.87702
25

C     3.95101  -0.71793   1.89699
O     2.97299   0.10129   1.23699
C     2.99241   0.09275  -0.09768
O     3.79978  -0.50042  -0.77679
N     1.89586   0.86637  -0.55596
N     1.79123   0.92611  -1.87579
N     0.68600   1.16781  -2.38106
C    -0.61021   1.22690  -1.13711
C    -1.33732  -0.13493  -1.30841
O    -0.35568  -1.01244  -0.74654
C    -0.27868  -0.39282   0.53856
C    -1.78357  -0.43393   0.93867
C    -2.29913  -0.60147   2.24554
N    -2.69817  -0.74309   3.32939
C    -2.45246  -0.27698  -0.23024
C    -3.85000  -0.24958  -0.45439
N    -4.99425  -0.22534  -0.66401
C     0.08514   1.04999   0.12150
H     3.82671  -1.77475   1.61685
H     4.97252  -0.39004   1.65475
H     3.75610  -0.58677   2.96873
H    -1.14456   2.18594  -1.41752
H    -1.62418  -0.39582  -2.32355
H     0.41267  -0.86139   1.22052
H     0.20926   1.86648   0.87696
25

C     3.95072  -0.71763   1.89665
O     2.97071   0.10177   1.23971
C     2.98619   0.09436  -0.09550
O     3.79571  -0.49426  -0.77577
N     1.87969   0.86062  -0.55165
N     1.79445   0.92567  -1.88157
N     0.66303   1.17143  -2.36191
C    -0.59307   1.22245  -1.15064
C    -1.33453  -0.13613  -1.31015
O    -0.35599  -1.01673  -0.74692
C    -0.27577  -0.39588   0.53756
C    -1.78105  -0.42864   0.93818
C    -2.29775  -0.59932   2.24484
N    -2.69779  -0.74328   3.32793
C    -2.44981  -0.27117  -0.23105
C    -3.84818  -0.24724  -0.45482
N    -4.99256  -0.22577  -0.66365
C     0.10479   1.04318   0.11609
H     3.82674  -1.77461   1.61647
H     4.97229  -0.38970   1.65437
H     3.75646  -0.58710   2.96878
H    -1.14495   2.18542  -1.41480
H    -1.62394  -0.39680  -2.32375
H     0.41261  -0.86330   1.22047
H     0.20886   1.86546   0.87691
25

C     3.95044  -0.71733   1.89631
O     2.96843   0.10225   1.24242
C     2.97997   0.09596  -0.09331
O     3.79164  -0.48809  -0.77475
N     1.86351   0.85488  -0.54734
N     1.79767   0.92523  -1.88736
N     0.64006   1.17504  -2.34276
C    -0.57593   1.21801  -1.16418
C    -1.33174  -0.13734  -1.31189
O    -0.35630  -1.02103  -0.74731
C    -0.27286  -0.39894   0.53656
C    -1.77852  -0.42336   0.93769
C    -2.29636  -0.59717   2.24414
N    -2.69741  -0.74347   3.32648
C    -2.44716  -0.26536  -0.23185
C    -3.84636  -0.24489  -0.45525
N    -4.99086  -0.22621  -0.66329
C     0.12444   1.03636   0.11067
H     3.82677  -1.77448   1.61610
H     4.97206  -0.38937   1.65399
H     3.75683  -0.58744   2.96882
H    -1.14534   2.18490  -1.41209
H    -1.62371  -0.39778  -2.32396
H     0.41255  -0.86521   1.22041
H     0.20846   1.86444   0.87685
25

C     3.95072  -0.71763   1.89665
O     2.97071   0.10177   1.23971
C     2.98619   0.09436  -0.09550
O     3.79571  -0.49426  -0.77577
N     1.87969   0.86062  -0.55165
N     1.79445   0.92567  -1.88157
N     0.66303   1.17143  -2.36191
C    -0.59307   1.22245  -1.15064
C    -1.33453  -0.13613  -1.31015
O    -0.35599  -1.01673  -0.74692
C    -0.27577  -0.39588   0.53756
C    -1.78105  -0.42864   0.93818
C    -2.29775  -0.59932   2.24484
N    -2.69779  -0.74328   3.32793
C    -2.44981  -0.27117  -0.23105
C    -3.84818  -0.24724  -0.45482
N    -4.99256  -0.22577  -0.66365
C     0.10479   1.04318   0.11609
H     3.82674  -1.77461   1.61647
H     4.97229  -0.38970   1.65437
H     3.75646  -0.58710   2.96878
H    -1.14495   2.18542  -1.41480
H    -1.62394  -0.39680  -2.32375
H     0.41261  -0.86330   1.22047
H     0.20886   1.86546   0.87691
25

C     3.95101  -0.71793   1.89699
O     2.97299   0.10129   1.23699
C     2.99241   0.09275  -0.09768
O     3.79978  -0.50042  -0.77679
N     1.89586   0.86637  -0.55596
N     1.79123   0.92611  -1.87579
N     0.68600   1.16781  -2.38106
C    -0.61021   1.22690  -1.13711
C    -1.33732  -0.13493  -1.30841
O    -0.35568  -1.01244  -0.74654
C    -0.27868  -0.39282   0.53856
C    -1.78357  -0.43393   0.93867
C    -2.29913  -0.60147   2.24554
N    -2.69817  -0.74309   3.32939
C    -2.45246  -0.27698  -0.23024
C    -3.85000  -0.24958  -0.45439
N    -4.99425  -0.22534  -0.66401
C     0.08514   1.04999   0.12150
H     3.82671  -1.77475   1.61685
H     4.97252  -0.39004   1.65475
H     3.75610  -0.58677   2.96873
H    -1.14456   2.18594  -1.41752
H    -1.62418  -0.39582  -2.32355
H     0.41267  -0.86139   1.22052
H     0.20926   1.86648   0.87696
25

C     3.95129  -0.71823   1.89733
O     2.97527   0.10081   1.23427
C     2.99864   0.09115  -0.09987
O     3.80384  -0.50659  -0.77782
N     1.91204   0.87211  -0.56027
N     1.78802   0.92654  -1.87001
N     0.70898   1.16420  -2.40021
C    -0.62736   1.23134  -1.12357
C    -1.34012  -0.13372  -1.30666
O    -0.35537  -1.00814  -0.74616
C    -0.28159  -0.38976   0.53956
C    -1.78609  -0.43921   0.93916
C    -2.30052  -0.60362   2.24624
N    -2.69855  -0.74290   3.33085
C    -2.45510  -0.28278  -0.22943
C    -3.85183  -0.25193  -0.45396
N    -4.99595  -0.22491  -0.66438
C     0.06548   1.05681   0.12692
H     3.82668  -1.77489   1.61723
H     4.97275  -0.39038   1.65513
H     3.75573  -0.58644   2.96869
H    -1.14416   2.18647  -1.42024
H    -1.62442  -0.39485  -2.32334
H     0.41273  -0.85948   1.22057
H     0.20966   1.86750   0.87702
25

C     3.95158  -0.71853   1.89767
O     2.97755   0.10032   1.23155
C     3.00486   0.08954  -0.10205
O     3.80791  -0.51275  -0.77884
N     1.92821   0.87785  -0.56458
N     1.78480   0.92698  -1.86422
N     0.73195   1.16059  -2.41936
C    -0.64450   1.23579  -1.11003
C    -1.34291  -0.13252  -1.30492
O    -0.35506  -1.00384  -0.74577
C    -0.28450  -0.38670   0.54055
C    -1.78861  -0.44450   0.93966
C    -2.30190  -0.60577   2.24694
N    -2.69892  -0.74271   3.33231
C    -2.45775  -0.28859  -0.22863
C    -3.85365  -0.25428  -0.45353
N    -4.99765  -0.22447  -0.66474
C     0.04583   1.06362   0.13233
H     3.82664  -1.77503   1.61760
H     4.97298  -0.39072   1.65552
H     3.75537  -0.58610   2.96864
H    -1.14377   2.18699  -1.42295
H    -1.62465  -0.39387  -2.32313
H     0.41279  -0.85758   1.22063
H     0.21006   1.86852   0.87708
25

C     3.95186  -0.71883   1.89801
O     2.97983   0.09984   1.22884
C     3.01108   0.08794  -0.10424
O     3.81197  -0.51892  -0.77986
N     1.94438   0.88360  -0.56890
N     1.78158   0.92742  -1.85844
N     0.75492   1.15697  -2.43851
C    -0.66164   1.24023  -1.09650
C    -1.34570  -0.13132  -1.30318
O    -0.35475  -0.99955  -0.74539
C    -0.28741  -0.38364   0.54155
C    -1.79113  -0.44978   0.94015
C    -2.30329  -0.60792   2.24764
N    -2.69930  -0.74252   3.33376
C    -2.46040  -0.29440  -0.22782
C    -3.85547  -0.25662  -0.45310
N    -4.99934  -0.22404  -0.66510
C     0.02618   1.07044   0.13775
H     3.82661  -1.77516   1.61798
H     4.97321  -0.39106   1.65590
H     3.75500  -0.58577   2.96860
H    -1.14338   2.18751  -1.42567
H    -1.62489  -0.39290  -2.32292
H     0.41284  -0.85567   1.22068
H     0.21046   1.86954   0.87713
25

C     3.95214  -0.71913   1.89835
O     2.98211   0.09936   1.22612
C     3.01730   0.08633  -0.10642
O     3.81604  -0.52508  -0.78088
N     1.96056   0.88934  -0.57321
N     1.77836   0.92785  -1.85266
N     0.77789   1.15336  -2.45766
C    -0.67879   1.24467  -1.08296
C    -1.34849  -0.13011  -1.30143
O    -0.35444  -0.99525  -0.74501
C    -0.29032  -0.38058   0.54255
C    -1.79365  -0.45507   0.94064
C    -2.30467  -0.61007   2.24834
N    -2.69968  -0.74233   3.33522
C    -2.46304  -0.30021  -0.22702
C    -3.85730  -0.25897  -0.45267
N    -5.00104  -0.22360  -0.66547
C     0.00653   1.07726   0.14316
H     3.82658  -1.77530   1.61836
H     4.97345  -0.39139   1.65628
H     3.75464  -0.58544   2.96855
H    -1.14298   2.18804  -1.42839
H    -1.62512  -0.39192  -2.32272
H     0.41290  -0.85376   1.22073
H     0.21086   1.87056   0.87719
25

C     3.95243  -0.71943   1.89869
O     2.98439   0.09888   1.22340
C     3.02352   0.08472  -0.10861
O     3.82011  -0.53125  -0.78191
N     1.97673   0.89508  -0.57752
N     1.77514   0.92829  -1.84687
N     0.80087   1.14975  -2.47681
C    -0.69593   1.24912  -1.06943
C    -1.35128  -0.12891  -1.29969
O    -0.35413  -0.99095  -0.74462
C    -0.29323  -0.37752   0.54355
C    -1.79617  -0.46035   0.94113
C    -2.30606  -0.61222   2.24904
N    -2.70006  -0.74214   3.33668
C    -2.46569  -0.30602  -0.22621
C    -3.85912  -0.26132  -0.45224
N    -5.00274  -0.22317  -0.66583
C    -0.01312   1.08407   0.14858
H     3.82655  -1.77544   1.61873
H     4.97368  -0.39173   1.65666
H     3.75427  -0.58510   2.96851
H    -1.14259   2.18856  -1.43110
H    -1.62536  -0.39094  -2.32251
H     0.41296  -0.85185   1.22079
H     0.21126   1.87158   0.87724
25

C     3.95271  -0.71973   1.89903
O     2.98667   0.09840   1.22068
C     3.02975   0.08312  -0.11079
O     3.82417  -0.53742  -0.78293
N     1.99290   0.90082  -0.58183
N     1.77192   0.92873  -1.84109
N     0.82384   1.14613  -2.49596
C    -0.71307   1.25356  -1.05589
C    -1.35407  -0.12770  -1.29795
O    -0.35382  -0.98666  -0.74424
C    -0.29615  -0.37446   0.54454
C    -1.79870  -0.46564   0.94162
C    -2.30744  -0.61437   2.24974
N    -2.70044  -0.74195   3.33814
C    -2.46834  -0.31183  -0.22541
C    -3.86094  -0.26367  -0.45181
N    -5.00443  -0.22274  -0.66620
C    -0.03277   1.09089   0.15399
H     3.82651  -1.77557   1.61911
H     4.97391  -0.39207   1.65704
H     3.75390  -0.58477   2.96846
H    -1.14220   2.18908  -1.43382
H    -1.62560  -0.38997  -2.32230
H     0.41302  -0.84995   1.22084
H     0.21166   1.87260   0.87730
25

C     3.95300  -0.72002   1.89937
O     2.98895   0.09791   1.21796
C     3.03597   0.08151  -0.11298
O     3.82824  -0.54358  -0.78395
N     2.00908   0.90657  -0.58615
N     1.76870   0.92916  -1.83531
N     0.84681   1.14252  -2.51511
C    -0.73022   1.25800  -1.04236
C    -1.35687  -0.12650  -1.29620
O    -0.35351  -0.98236  -0.74385
C    -0.29906  -0.37140   0.54554
C    -1.80122  -0.47093   0.94211
C    -2.30883  -0.61652   2.25044
N    -2.70082  -0.74177   3.33960
C    -2.47098  -0.31764  -0.22460
C    -3.86277  -0.26601  -0.45138
N    -5.00613  -0.22230  -0.66656
C    -0.05243   1.09770   0.15941
H     3.82648  -1.77571   1.61948
H     4.97414  -0.39241   1.65742
H     3.75354  -0.58443   2.96842
H    -1.14181   2.18961  -1.43654
H    -1.62583  -0.38899  -2.32209
H     0.41308  -0.84804   1.22089
H     0.21205   1.87362   0.87735
25

C     3.95328  -0.72032   1.89971
O     2.99123   0.09743   1.21525
C     3.04219   0.07991  -0.11516
O     3.83230  -0.54975  -0.78497
N     2.02525   0.91231  -0.59046
N     1.76548   0.92960  -1.82952
N     0.86978   1.13891  -2.53426
C    -0.74736   1.26245  -1.02882
C    -1.35966  -0.12529  -1.29446
O    -0.35320  -0.97807  -0.74347
C    -0.30197  -0.36834   0.54654
C    -1.80374  -0.47621   0.94260
C    -2.31021  -0.61867   2.25114
N    -2.70120  -0.74158   3.34105
C    -2.47363  -0.32345  -0.22380
C    -3.86459  -0.26836  -0.45094
N    -5.00783  -0.22187  -0.66692
C    -0.07208   1.10452   0.16482
H     3.82645  -1.77585   1.61986
H     4.97437  -0.39275   1.65780
H     3.75317  -0.58410   2.96837
H    -1.14141   2.19013  -1.43925
H    -1.62607  -0.38802  -2.32189
H     0.41314  -0.84613   1.22095
H     0.21245   1.87464   0.87741
25

C     3.95357  -0.72062   1.90004
O     2.99351   0.09695   1.21253
C     3.04841   0.07830  -0.11735
O     3.83637  -0.55591  -0.78600
N     2.04143   0.91805  -0.59477
N     1.76226   0.93004  -1.82374
N     0.89276   1.13530  -2.55341
C    -0.76450   1.26689  -1.01529
C    -1.36245  -0.12409  -1.29272
O    -0.35289  -0.97377  -0.74309
C    -0.30488  -0.36528   0.54754
C    -1.80626  -0.48150   0.94309
C    -2.31160  -0.62081   2.25184
N    -2.70157  -0.74139   3.34251
C    -2.47628  -0.32926  -0.22299
C    -3.86641  -0.27071  -0.45051
N    -5.00952  -0.22143  -0.66729
C    -0.09173   1.11134   0.17024
H     3.82642  -1.77599   1.62024
H     4.97460  -0.39308   1.65818
H     3.75281  -0.58377   2.96833
H    -1.14102   2.19065  -1.44197
H    -1.62630  -0.38704  -2.32168
H     0.41320  -0.84422   1.22100
H     0.21285   1.87566   0.87746
25

C     3.95385  -0.72092   1.90038
O     2.99579   0.09647   1.20981
C     3.05463   0.07670  -0.11954
O     3.84044  -0.56208  -0.78702
N     2.05760   0.92380  -0.59908
N     1.75904   0.93047  -1.81795
N     0.91573   1.13168  -2.57256
C    -0.78165   1.27133  -1.00175
C    -1.36524  -0.12288  -1.29097
O    -0.35258  -0.96947  -0.74270
C    -0.30779  -0.36222   0.54854
C    -1.80878  -0.48678   0.94358
C    -2.31298  -0.62296   2.25254
N    -2.70195  -0.74120   3.34397
C    -2.47892  -0.33507  -0.22219
C    -3.86824  -0.27306  -0.45008
N    -5.01122  -0.22100  -0.66765
C    -0.11138   1.11815   0.17565
H     3.82638  -1.77612   1.62061
H     4.97483  -0.39342   1.65856
H     3.75244  -0.58343   2.96828
H    -1.14063   2.19118  -1.44469
H    -1.62654  -0.38607  -2.32147
H     0.41325  -0.84232   1.22105
H     0.21325   1.87668   0.87752
25

C     3.95414  -0.72122   1.90072
O     2.99807   0.09599   1.20709
C     3.06086   0.07509  -0.12172
O     3.84450  -0.56824  -0.78804
N     2.07377   0.92954  -0.60339
N     1.75582   0.93091  -1.81217
N     0.93870   1.12807  -2.59171
C    -0.79879   1.27578  -0.98822
C    -1.36803  -0.12168  -1.28923
O    -0.35227  -0.96518  -0.74232
C    -0.31070  -0.35916   0.54953
C    -1.81130  -0.49207   0.94407
C    -2.31437  -0.62511   2.25324
N    -2.70233  -0.74101   3.34543
C    -2.48157  -0.34088  -0.22138
C    -3.87006  -0.27540  -0.44965
N    -5.01291  -0.22057  -0.66802
C    -0.13103   1.12497   0.18107
H     3.82635  -1.77626   1.62099
H     4.97506  -0.39376   1.65894
H     3.75207  -0.58310   2.96823
H    -1.14023   2.19170  -1.44741
H    -1.62678  -0.38509  -2.32126
H     0.41331  -0.84041   1.22111
H     0.21365   1.87770   0.87758
25

C     3.95442  -0.72152   1.90106
O     3.00034   0.09550   1.20438
C     3.06708   0.07348  -0.12391
O     3.84857  -0.57441  -0.78906
N     2.08995   0.93528  -0.60771
N     1.75260   0.93135  -1.80639
N     0.96168   1.12446  -2.61087
C    -0.81593   1.28022  -0.97468
C    -1.37083  -0.12047  -1.28749
O    -0.35196  -0.96088  -0.74194
C    -0.31361  -0.35610   0.55053
C    -1.81383  -0.49735   0.94457
C    -2.31575  -0.62726   2.25394
N    -2.70271  -0.74082   3.34688
C    -2.48422  -0.34669  -0.22058
C    -3.87188  -0.27775  -0.44922
N    -5.01461  -0.22013  -0.66838
C    -0.15068   1.13178   0.18648
H     3.82632  -1.77640   1.62137
H     4.97530  -0.39410   1.65932
H     3.75171  -0.58277   2.96819
H    -1.13984   2.19222  -1.45012
H    -1.62701  -0.38411  -2.32106
H     0.41337  -0.83850   1.22116
H     0.21405   1.87872   0.87763
25

C     3.95471  -0.72182   1.90140
O     3.00262   0.09502   1.20166
C     3.07330   0.07188  -0.12609
O     3.85263  -0.58058  -0.79009
N     2.10612   0.94102  -0.61202
N     1.74938   0.93178  -1.80060
N     0.98465   1.12084  -2.63002
C    -0.83308   1.28467  -0.96114
C    -1.37362  -0.11927  -1.28574
O    -0.35165  -0.95658  -0.74155
C    -0.31652  -0.35304   0.55153
C    -1.81635  -0.50264   0.94506
C    -2.31714  -0.62941   2.25464
N    -2.70309  -0.74063   3.34834
C    -2.48687  -0.35249  -0.21977
C    -3.87371  -0.28010  -0.44879
N    -5.01631  -0.21970  -0.66874
C    -0.17033   1.13860   0.19190
H     3.82629  -1.77654   1.62174
H     4.97553  -0.39444   1.65970
H     3.75134  -0.58243   2.96814
H    -1.13945   2.19274  -1.45284
H    -1.62725  -0.38314  -2.32085
H     0.41343  -0.83659   1.22121
H     0.21445   1.87974   0.87769
25

C     3.95499  -0.72212   1.90174
O     3.00490   0.09454   1.19894
C     3.07952   0.07027  -0.12828
O     3.85670  -0.58674  -0.79111
N     2.12229   0.94677  -0.61633
N     1.74616   0.93222  -1.79482
N     1.00762   1.11723  -2.64917
C    -0.85022   1.28911  -0.94761
C    -1.37641  -0.11806  -1.28400
O    -0.35134  -0.95229  -0.74117
C    -0.31944  -0.34998   0.55253
C    -1.81887  -0.50792   0.94555
C    -2.31852  -0.63156   2.25534
N    -2.70347  -0.74044   3.34980
C    -2.48951  -0.35830  -0.21896
C    -3.87553  -0.28244  -0.44836
N    -5.01800  -0.21927  -0.66911
C    -0.18999   1.14542   0.19731
H     3.82625  -1.77667   1.62212
H     4.97576  -0.39477   1.66008
H     3.75098  -0.58210   2.96810
H    -1.13905   2.19327  -1.45556
H    -1.62748  -0.38216  -2.32064
H     0.41349  -0.83469   1.22127
H     0.21485   1.88076   0.87774
25

C     3.95528  -0.72242   1.90208
O     3.00718   0.09406   1.19622
C     3.08574   0.06867  -0.13046
O     3.86077  -0.59291  -0.79213
N     2.13847   0.95251  -0.62064
N     1.74294   0.93266  -1.78904
N     1.03059   1.11362  -2.66832
C    -0.86736   1.29355  -0.93407
C    -1.37920  -0.11686  -1.28226
O    -0.35103  -0.94799  -0.74078
C    -0.32235  -0.34692   0.55352
C    -1.82139  -0.51321   0.94604
C    -2.31991  -0.63371   2.25604
N    -2.70384  -0.74025   3.35126
C    -2.49216  -0.36411  -0.21816
C    -3.87735  -0.28479  -0.44793
N    -5.01970  -0.21883  -0.66947
C    -0.20964   1.15223   0.20273
H     3.82622  -1.77681   1.62250
H     4.97599  -0.39511   1.66046
H     3.75061  -0.58176   2.96805
H    -1.13866   2.19379  -1.45827
H    -1.62772  -0.38119  -2.32043
H     0.41355  -0.83278   1.22132
H     0.21525   1.88178   0.87780
25

C     3.95556  -0.72272   1.90242
O     3.00946   0.09358   1.19350
C     3.09197   0.06706  -0.13265
O     3.86483  -0.59907  -0.79315
N     2.15464   0.95825  -0.62496
N     1.73973   0.93310  -1.78325
N     1.05357   1.11000  -2.68747
C    -0.88451   1.29800  -0.92054
C    -1.38199  -0.11565  -1.28051
O    -0.35072  -0.94370  -0.74040
C    -0.32526  -0.34386   0.55452
C    -1.82391  -0.51849   0.94653
C    -2.32129  -0.63586   2.25674
N    -2.70422  -0.74006   3.35271
C    -2.49481  -0.36992  -0.21735
C    -3.87918  -0.28714  -0.44750
N    -5.02140  -0.21840  -0.66983
C    -0.22929   1.15905   0.20815
H     3.82619  -1.77695   1.62287
H     4.97622  -0.39545   1.66084
H     3.75025  -0.58143   2.96801
H    -1.13827   2.19431  -1.46099
H    -1.62796  -0.38021  -2.32023
H     0.41360  -0.83087   1.22137
H     0.21565   1.88280   0.87785
25

C     3.95585  -0.72302   1.90276
O     3.01174   0.09309   1.19079
C     3.09819   0.06546  -0.13483
O     3.86890  -0.60524  -0.79418
N     2.17082   0.96400  -0.62927
N     1.73651   0.93353  -1.77747
N     1.07654   1.10639  -2.70662
C    -0.90165   1.30244  -0.90700
C    -1.38478  -0.11445  -1.27877
O    -0.35042  -0.93940  -0.74002
C    -0.32817  -0.34080   0.55552
C    -1.82643  -0.52378   0.94702
C    -2.32268  -0.63801   2.25744
N    -2.70460  -0.73987   3.35417
C    -2.49745  -0.37573  -0.21655
C    -3.88100  -0.28949  -0.44707
N    -5.02309  -0.21796  -0.67020
C    -0.24894   1.16586   0.21356
H     3.82616  -1.77709   1.62325
H     4.97645  -0.39579   1.66123
H     3.74988  -0.58110   2.96796
H    -1.13788   2.19484  -1.46371
H    -1.62819  -0.37924  -2.32002
H     0.41366  -0.82896   1.22143
H     0.21605   1.88382   0.87791
