12

O 3.531811842 -1.073025970 -1.466484108
C 2.791561465 -2.228538107 0.569465698
C 0.742321082 -0.799432877 1.992700003
C -1.076706892 0.976429803 0.694477658
O -0.212458620 2.283982407 -1.519478170
C -2.180697253 0.453731520 -1.777892057
H 2.572834018 0.480177745 -1.836751905
H -1.649335217 -1.256226225 -2.780530718
H -0.338199371 -2.175937656 3.087623024
H 1.847987252 0.243769247 3.410505465
H -2.164485462 2.186955289 1.950461317
H -4.007940206 1.240742508 -2.268508026

