29

C     0.47626   2.30646  -1.31569
C     0.67112   1.54000  -0.03132
O     1.36656   2.00403   0.87241
C     0.03926   0.21564   0.11300
C    -1.31452  -0.12274  -0.39359
C    -1.67203  -1.48632  -0.44867
C    -2.90638  -1.88294  -0.95668
C    -3.81722  -0.92450  -1.41777
C    -3.48862   0.43137  -1.34245
C    -2.25269   0.83324  -0.82652
C     1.60210  -0.73590  -1.16241
C     2.26889  -1.53601  -0.21702
C     1.60579  -0.94999   1.51517
C     2.63734  -0.02730   1.96543
N     3.62112   0.49562   2.32135
O     0.33076  -0.51860   1.22173
H     1.44201   2.71244  -1.60178
H     0.05536   1.68834  -2.11425
H    -0.20737   3.15776  -1.12838
H    -0.95925  -2.22664  -0.08866
H    -3.14507  -2.94653  -1.01081
H    -4.77550  -1.24578  -1.84022
H    -4.20803   1.18008  -1.69636
H    -2.05381   1.90278  -0.74542
H     2.19287   0.10849  -1.65217
H     0.82705  -1.14283  -1.81523
H     3.38105  -1.38944  -0.06433
H     1.98874  -2.61426  -0.17077
H     1.45120  -1.76630   2.30590
29

C     0.47475   2.30596  -1.31404
C     0.66923   1.54107  -0.02873
O     1.36955   2.00300   0.87237
C     0.03113   0.22183   0.12265
C    -1.31701  -0.12135  -0.39042
C    -1.67243  -1.48547  -0.44712
C    -2.90576  -1.88291  -0.95700
C    -3.81701  -0.92523  -1.41882
C    -3.48946   0.43096  -1.34365
C    -2.25485   0.83383  -0.82604
C     1.61721  -0.74431  -1.17808
C     2.28087  -1.54539  -0.23862
C     1.59340  -0.93842   1.53932
C     2.63426  -0.02580   1.96875
N     3.62217   0.49342   2.31744
O     0.33077  -0.51847   1.22005
H     1.44161   2.71230  -1.60113
H     0.05523   1.68777  -2.11361
H    -0.20803   3.15757  -1.12855
H    -0.95932  -2.22622  -0.08794
H    -3.14460  -2.94658  -1.01109
H    -4.77526  -1.24623  -1.84074
H    -4.20830   1.17978  -1.69703
H    -2.05472   1.90298  -0.74505
H     2.19599   0.10758  -1.65457
H     0.82844  -1.14214  -1.81650
H     3.38269  -1.39089  -0.06605
H     1.98950  -2.61497  -0.17300
H     1.44740  -1.76405   2.31103
29

C     0.47323   2.30546  -1.31239
C     0.66734   1.54213  -0.02614
O     1.37253   2.00198   0.87233
C     0.02300   0.22803   0.13231
C    -1.31950  -0.11996  -0.38724
C    -1.67284  -1.48462  -0.44558
C    -2.90514  -1.88288  -0.95733
C    -3.81680  -0.92596  -1.41988
C    -3.49030   0.43054  -1.34485
C    -2.25700   0.83441  -0.82556
C     1.63231  -0.75272  -1.19375
C     2.29284  -1.55477  -0.26021
C     1.58101  -0.92686   1.56346
C     2.63118  -0.02429   1.97208
N     3.62321   0.49121   2.31353
O     0.33078  -0.51833   1.21837
H     1.44121   2.71216  -1.60048
H     0.05511   1.68720  -2.11297
H    -0.20870   3.15739  -1.12872
H    -0.95940  -2.22580  -0.08722
H    -3.14412  -2.94663  -1.01136
H    -4.77502  -1.24667  -1.84127
H    -4.20858   1.17948  -1.69770
H    -2.05563   1.90319  -0.74468
H     2.19911   0.10666  -1.65696
H     0.82984  -1.14144  -1.81777
H     3.38433  -1.39234  -0.06776
H     1.99026  -2.61568  -0.17523
H     1.44360  -1.76180   2.31616
29

C     0.47172   2.30496  -1.31074
C     0.66544   1.54320  -0.02355
O     1.37552   2.00095   0.87229
C     0.01487   0.23422   0.14197
C    -1.32200  -0.11858  -0.38406
C    -1.67324  -1.48376  -0.44403
C    -2.90452  -1.88285  -0.95766
C    -3.81658  -0.92669  -1.42093
C    -3.49114   0.43013  -1.34605
C    -2.25916   0.83499  -0.82507
C     1.64742  -0.76113  -1.20941
C     2.30482  -1.56415  -0.28181
C     1.56863  -0.91530   1.58761
C     2.62810  -0.02278   1.97540
N     3.62425   0.48901   2.30961
O     0.33079  -0.51819   1.21668
H     1.44081   2.71203  -1.59983
H     0.05498   1.68664  -2.11234
H    -0.20937   3.15720  -1.12889
H    -0.95947  -2.22538  -0.08651
H    -3.14365  -2.94668  -1.01164
H    -4.77479  -1.24711  -1.84179
H    -4.20886   1.17918  -1.69836
H    -2.05654   1.90340  -0.74431
H     2.20223   0.10575  -1.65936
H     0.83123  -1.14074  -1.81904
H     3.38597  -1.39379  -0.06948
H     1.99103  -2.61639  -0.17745
H     1.43980  -1.75956   2.32129
29

C     0.47021   2.30446  -1.30909
C     0.66355   1.54426  -0.02097
O     1.37850   1.99992   0.87225
C     0.00674   0.24041   0.15163
C    -1.32449  -0.11719  -0.38088
C    -1.67365  -1.48291  -0.44249
C    -2.90390  -1.88283  -0.95799
C    -3.81637  -0.92742  -1.42198
C    -3.49198   0.42972  -1.34725
C    -2.26131   0.83557  -0.82459
C     1.66252  -0.76954  -1.22508
C     2.31680  -1.57353  -0.30341
C     1.55624  -0.90374   1.61176
C     2.62501  -0.02127   1.97872
N     3.62529   0.48681   2.30570
O     0.33079  -0.51805   1.21500
H     1.44040   2.71189  -1.59918
H     0.05486   1.68607  -2.11170
H    -0.21003   3.15701  -1.12907
H    -0.95954  -2.22496  -0.08579
H    -3.14317  -2.94673  -1.01191
H    -4.77455  -1.24756  -1.84232
H    -4.20914   1.17887  -1.69903
H    -2.05745   1.90361  -0.74394
H     2.20535   0.10484  -1.66176
H     0.83262  -1.14004  -1.82031
H     3.38761  -1.39524  -0.07120
H     1.99179  -2.61710  -0.17968
H     1.43600  -1.75731   2.32642
29

C     0.46870   2.30396  -1.30745
C     0.66166   1.54533  -0.01838
O     1.38148   1.99889   0.87221
C    -0.00139   0.24661   0.16128
C    -1.32698  -0.11580  -0.37770
C    -1.67405  -1.48206  -0.44094
C    -2.90328  -1.88280  -0.95831
C    -3.81615  -0.92815  -1.42304
C    -3.49282   0.42931  -1.34845
C    -2.26347   0.83615  -0.82411
C     1.67763  -0.77794  -1.24075
C     2.32878  -1.58291  -0.32501
C     1.54385  -0.89217   1.63590
C     2.62193  -0.01977   1.98204
N     3.62633   0.48460   2.30178
O     0.33080  -0.51792   1.21332
H     1.44000   2.71175  -1.59853
H     0.05473   1.68550  -2.11106
H    -0.21070   3.15683  -1.12924
H    -0.95961  -2.22454  -0.08507
H    -3.14270  -2.94678  -1.01219
H    -4.77431  -1.24800  -1.84285
H    -4.20942   1.17857  -1.69970
H    -2.05836   1.90382  -0.74357
H     2.20847   0.10393  -1.66416
H     0.83402  -1.13934  -1.82158
H     3.38925  -1.39668  -0.07291
H     1.99256  -2.61781  -0.18191
H     1.43220  -1.75506   2.33155
29

C     0.46719   2.30346  -1.30580
C     0.65977   1.54640  -0.01579
O     1.38447   1.99786   0.87217
C    -0.00952   0.25280   0.17094
C    -1.32947  -0.11442  -0.37452
C    -1.67446  -1.48121  -0.43940
C    -2.90266  -1.88277  -0.95864
C    -3.81594  -0.92888  -1.42409
C    -3.49366   0.42890  -1.34965
C    -2.26563   0.83673  -0.82363
C     1.69274  -0.78635  -1.25642
C     2.34076  -1.59229  -0.34661
C     1.53146  -0.88061   1.66005
C     2.61885  -0.01826   1.98536
N     3.62737   0.48240   2.29787
O     0.33081  -0.51778   1.21164
H     1.43960   2.71161  -1.59787
H     0.05461   1.68493  -2.11043
H    -0.21136   3.15664  -1.12941
H    -0.95968  -2.22412  -0.08436
H    -3.14222  -2.94683  -1.01247
H    -4.77407  -1.24844  -1.84337
H    -4.20969   1.17827  -1.70037
H    -2.05927   1.90403  -0.74321
H     2.21160   0.10302  -1.66656
H     0.83541  -1.13864  -1.82285
H     3.39089  -1.39813  -0.07463
H     1.99332  -2.61852  -0.18414
H     1.42840  -1.75281   2.33668
29

C     0.46567   2.30296  -1.30415
C     0.65788   1.54746  -0.01320
O     1.38745   1.99683   0.87213
C    -0.01765   0.25900   0.18060
C    -1.33197  -0.11303  -0.37135
C    -1.67486  -1.48035  -0.43786
C    -2.90204  -1.88274  -0.95897
C    -3.81573  -0.92961  -1.42514
C    -3.49450   0.42849  -1.35086
C    -2.26778   0.83732  -0.82315
C     1.70784  -0.79476  -1.27208
C     2.35274  -1.60166  -0.36821
C     1.51908  -0.86905   1.68420
C     2.61577  -0.01675   1.98868
N     3.62841   0.48020   2.29396
O     0.33082  -0.51764   1.20996
H     1.43920   2.71147  -1.59722
H     0.05448   1.68436  -2.10979
H    -0.21203   3.15645  -1.12958
H    -0.95975  -2.22370  -0.08364
H    -3.14175  -2.94687  -1.01274
H    -4.77384  -1.24888  -1.84390
H    -4.20997   1.17797  -1.70103
H    -2.06019   1.90423  -0.74284
H     2.21472   0.10211  -1.66895
H     0.83680  -1.13795  -1.82412
H     3.39253  -1.39958  -0.07634
H     1.99408  -2.61924  -0.18636
H     1.42460  -1.75057   2.34181
29

C     0.46416   2.30246  -1.30250
C     0.65599   1.54853  -0.01062
O     1.39044   1.99581   0.87208
C    -0.02578   0.26519   0.19026
C    -1.33446  -0.11164  -0.36817
C    -1.67526  -1.47950  -0.43631
C    -2.90142  -1.88271  -0.95929
C    -3.81551  -0.93034  -1.42620
C    -3.49534   0.42808  -1.35206
C    -2.26994   0.83790  -0.82267
C     1.72295  -0.80317  -1.28775
C     2.36471  -1.61104  -0.38981
C     1.50669  -0.85749   1.70835
C     2.61268  -0.01524   1.99200
N     3.62945   0.47799   2.29004
O     0.33083  -0.51751   1.20828
H     1.43880   2.71134  -1.59657
H     0.05436   1.68379  -2.10915
H    -0.21270   3.15627  -1.12975
H    -0.95983  -2.22328  -0.08292
H    -3.14127  -2.94692  -1.01302
H    -4.77360  -1.24933  -1.84443
H    -4.21025   1.17767  -1.70170
H    -2.06110   1.90444  -0.74247
H     2.21784   0.10120  -1.67135
H     0.83820  -1.13725  -1.82539
H     3.39417  -1.40103  -0.07806
H     1.99485  -2.61995  -0.18859
H     1.42080  -1.74832   2.34695
29

C     0.46265   2.30196  -1.30085
C     0.65410   1.54960  -0.00803
O     1.39342   1.99478   0.87204
C    -0.03390   0.27139   0.19991
C    -1.33695  -0.11026  -0.36499
C    -1.67567  -1.47865  -0.43477
C    -2.90081  -1.88268  -0.95962
C    -3.81530  -0.93108  -1.42725
C    -3.49618   0.42767  -1.35326
C    -2.27210   0.83848  -0.82219
C     1.73806  -0.81158  -1.30342
C     2.37669  -1.62042  -0.41141
C     1.49430  -0.84592   1.73249
C     2.60960  -0.01374   1.99532
N     3.63049   0.47579   2.28613
O     0.33084  -0.51737   1.20660
H     1.43840   2.71120  -1.59592
H     0.05423   1.68322  -2.10851
H    -0.21336   3.15608  -1.12992
H    -0.95990  -2.22285  -0.08221
H    -3.14080  -2.94697  -1.01329
H    -4.77336  -1.24977  -1.84495
H    -4.21053   1.17736  -1.70237
H    -2.06201   1.90465  -0.74210
H     2.22096   0.10029  -1.67375
H     0.83959  -1.13655  -1.82666
H     3.39581  -1.40248  -0.07977
H     1.99561  -2.62066  -0.19082
H     1.41700  -1.74607   2.35208
29

C     0.46114   2.30146  -1.29920
C     0.65221   1.55066  -0.00544
O     1.39641   1.99375   0.87200
C    -0.04203   0.27758   0.20957
C    -1.33944  -0.10887  -0.36181
C    -1.67607  -1.47780  -0.43322
C    -2.90019  -1.88265  -0.95995
C    -3.81508  -0.93181  -1.42830
C    -3.49702   0.42726  -1.35446
C    -2.27425   0.83906  -0.82171
C     1.75316  -0.81998  -1.31909
C     2.38867  -1.62980  -0.43300
C     1.48191  -0.83436   1.75664
C     2.60652  -0.01223   1.99865
N     3.63153   0.47358   2.28221
O     0.33084  -0.51723   1.20492
H     1.43800   2.71106  -1.59527
H     0.05410   1.68266  -2.10788
H    -0.21403   3.15590  -1.13009
H    -0.95997  -2.22243  -0.08149
H    -3.14033  -2.94702  -1.01357
H    -4.77312  -1.25021  -1.84548
H    -4.21080   1.17706  -1.70303
H    -2.06292   1.90486  -0.74173
H     2.22408   0.09938  -1.67615
H     0.84098  -1.13585  -1.82793
H     3.39745  -1.40393  -0.08149
H     1.99637  -2.62137  -0.19305
H     1.41320  -1.74383   2.35721
29

C     0.45963   2.30096  -1.29755
C     0.65032   1.55173  -0.00286
O     1.39939   1.99272   0.87196
C    -0.05016   0.28377   0.21923
C    -1.34194  -0.10748  -0.35863
C    -1.67648  -1.47694  -0.43168
C    -2.89957  -1.88262  -0.96027
C    -3.81487  -0.93254  -1.42935
C    -3.49786   0.42684  -1.35566
C    -2.27641   0.83964  -0.82122
C     1.76827  -0.82839  -1.33475
C     2.40065  -1.63918  -0.45460
C     1.46953  -0.82280   1.78079
C     2.60344  -0.01072   2.00197
N     3.63257   0.47138   2.27830
O     0.33085  -0.51710   1.20324
H     1.43760   2.71092  -1.59462
H     0.05398   1.68209  -2.10724
H    -0.21469   3.15571  -1.13027
H    -0.96004  -2.22201  -0.08077
H    -3.13985  -2.94707  -1.01384
H    -4.77288  -1.25066  -1.84600
H    -4.21108   1.17676  -1.70370
H    -2.06383   1.90507  -0.74136
H     2.22720   0.09847  -1.67855
H     0.84237  -1.13515  -1.82920
H     3.39909  -1.40538  -0.08321
H     1.99714  -2.62208  -0.19527
H     1.40940  -1.74158   2.36234
29

C     0.45811   2.30046  -1.29591
C     0.64843   1.55279  -0.00027
O     1.40238   1.99169   0.87192
C    -0.05829   0.28997   0.22889
C    -1.34443  -0.10610  -0.35545
C    -1.67688  -1.47609  -0.43013
C    -2.89895  -1.88259  -0.96060
C    -3.81466  -0.93327  -1.43041
C    -3.49870   0.42643  -1.35686
C    -2.27856   0.84022  -0.82074
C     1.78337  -0.83680  -1.35042
C     2.41263  -1.64856  -0.47620
C     1.45714  -0.81124   1.80493
C     2.60036  -0.00921   2.00529
N     3.63361   0.46918   2.27439
O     0.33086  -0.51696   1.20156
H     1.43720   2.71078  -1.59396
H     0.05385   1.68152  -2.10660
H    -0.21536   3.15552  -1.13044
H    -0.96011  -2.22159  -0.08006
H    -3.13938  -2.94712  -1.01412
H    -4.77265  -1.25110  -1.84653
H    -4.21136   1.17646  -1.70437
H    -2.06474   1.90527  -0.74099
H     2.23032   0.09755  -1.68095
H     0.84377  -1.13445  -1.83047
H     3.40073  -1.40683  -0.08492
H     1.99790  -2.62279  -0.19750
H     1.40560  -1.73933   2.36747
29

C     0.45660   2.29996  -1.29426
C     0.64654   1.55386   0.00232
O     1.40536   1.99066   0.87188
C    -0.06642   0.29616   0.23854
C    -1.34692  -0.10471  -0.35228
C    -1.67728  -1.47524  -0.42859
C    -2.89833  -1.88256  -0.96093
C    -3.81444  -0.93400  -1.43146
C    -3.49954   0.42602  -1.35806
C    -2.28072   0.84081  -0.82026
C     1.79848  -0.84521  -1.36609
C     2.42461  -1.65794  -0.49780
C     1.44475  -0.79967   1.82908
C     2.59727  -0.00770   2.00861
N     3.63466   0.46697   2.27047
O     0.33087  -0.51682   1.19988
H     1.43680   2.71065  -1.59331
H     0.05373   1.68095  -2.10597
H    -0.21603   3.15534  -1.13061
H    -0.96019  -2.22117  -0.07934
H    -3.13890  -2.94717  -1.01439
H    -4.77241  -1.25154  -1.84706
H    -4.21164   1.17616  -1.70504
H    -2.06565   1.90548  -0.74062
H     2.23345   0.09664  -1.68334
H     0.84516  -1.13375  -1.83173
H     3.40237  -1.40828  -0.08664
H     1.99866  -2.62350  -0.19973
H     1.40180  -1.73709   2.37260
29

C     0.45509   2.29946  -1.29261
C     0.64465   1.55493   0.00491
O     1.40834   1.98964   0.87184
C    -0.07455   0.30236   0.24820
C    -1.34942  -0.10332  -0.34910
C    -1.67769  -1.47439  -0.42704
C    -2.89771  -1.88253  -0.96125
C    -3.81423  -0.93473  -1.43251
C    -3.50038   0.42561  -1.35926
C    -2.28288   0.84139  -0.81978
C     1.81359  -0.85362  -1.38176
C     2.43658  -1.66732  -0.51940
C     1.43236  -0.78811   1.85323
C     2.59419  -0.00620   2.01193
N     3.63570   0.46477   2.26656
O     0.33088  -0.51669   1.19820
H     1.43640   2.71051  -1.59266
H     0.05360   1.68038  -2.10533
H    -0.21669   3.15515  -1.13078
H    -0.96026  -2.22075  -0.07862
H    -3.13843  -2.94722  -1.01467
H    -4.77217  -1.25198  -1.84758
H    -4.21192   1.17585  -1.70570
H    -2.06656   1.90569  -0.74025
H     2.23657   0.09573  -1.68574
H     0.84655  -1.13306  -1.83300
H     3.40401  -1.40973  -0.08835
H     1.99943  -2.62421  -0.20196
H     1.39800  -1.73484   2.37773
29

C     0.45358   2.29896  -1.29096
C     0.64276   1.55599   0.00749
O     1.41133   1.98861   0.87180
C    -0.08268   0.30855   0.25786
C    -1.35191  -0.10194  -0.34592
C    -1.67809  -1.47353  -0.42550
C    -2.89709  -1.88250  -0.96158
C    -3.81401  -0.93546  -1.43357
C    -3.50122   0.42520  -1.36046
C    -2.28503   0.84197  -0.81930
C     1.82869  -0.86203  -1.39742
C     2.44856  -1.67670  -0.54100
C     1.41997  -0.77655   1.87738
C     2.59111  -0.00469   2.01525
N     3.63674   0.46257   2.26264
O     0.33089  -0.51655   1.19652
H     1.43600   2.71037  -1.59201
H     0.05348   1.67981  -2.10469
H    -0.21736   3.15496  -1.13095
H    -0.96033  -2.22033  -0.07791
H    -3.13795  -2.94727  -1.01494
H    -4.77193  -1.25243  -1.84811
H    -4.21219   1.17555  -1.70637
H    -2.06747   1.90590  -0.73988
H     2.23969   0.09482  -1.68814
H     0.84795  -1.13236  -1.83427
H     3.40565  -1.41117  -0.09007
H     2.00019  -2.62492  -0.20418
H     1.39420  -1.73259   2.38286
29

C     0.45207   2.29846  -1.28931
C     0.64087   1.55706   0.01008
O     1.41431   1.98758   0.87176
C    -0.09081   0.31475   0.26752
C    -1.35440  -0.10055  -0.34274
C    -1.67850  -1.47268  -0.42395
C    -2.89647  -1.88247  -0.96191
C    -3.81380  -0.93619  -1.43462
C    -3.50206   0.42479  -1.36166
C    -2.28719   0.84255  -0.81882
C     1.84380  -0.87043  -1.41309
C     2.46054  -1.68608  -0.56260
C     1.40759  -0.76498   1.90152
C     2.58803  -0.00318   2.01857
N     3.63778   0.46036   2.25873
O     0.33090  -0.51641   1.19484
H     1.43560   2.71023  -1.59136
H     0.05335   1.67925  -2.10405
H    -0.21802   3.15478  -1.13112
H    -0.96040  -2.21991  -0.07719
H    -3.13748  -2.94732  -1.01522
H    -4.77170  -1.25287  -1.84864
H    -4.21247   1.17525  -1.70704
H    -2.06838   1.90611  -0.73951
H     2.24281   0.09391  -1.69054
H     0.84934  -1.13166  -1.83554
H     3.40729  -1.41262  -0.09178
H     2.00095  -2.62564  -0.20641
H     1.39040  -1.73035   2.38799
29

C     0.45056   2.29796  -1.28766
C     0.63898   1.55812   0.01267
O     1.41730   1.98655   0.87171
C    -0.09894   0.32094   0.27717
C    -1.35689  -0.09916  -0.33956
C    -1.67890  -1.47183  -0.42241
C    -2.89585  -1.88244  -0.96223
C    -3.81359  -0.93692  -1.43567
C    -3.50290   0.42438  -1.36286
C    -2.28935   0.84313  -0.81834
C     1.85890  -0.87884  -1.42876
C     2.47252  -1.69546  -0.58419
C     1.39520  -0.75342   1.92567
C     2.58494  -0.00167   2.02189
N     3.63882   0.45816   2.25482
O     0.33090  -0.51628   1.19316
H     1.43520   2.71009  -1.59071
H     0.05323   1.67868  -2.10342
H    -0.21869   3.15459  -1.13130
H    -0.96047  -2.21949  -0.07647
H    -3.13700  -2.94737  -1.01549
H    -4.77146  -1.25331  -1.84916
H    -4.21275   1.17495  -1.70770
H    -2.06930   1.90632  -0.73914
H     2.24593   0.09300  -1.69294
H     0.85073  -1.13096  -1.83681
H     3.40893  -1.41407  -0.09350
H     2.00172  -2.62635  -0.20864
H     1.38659  -1.72810   2.39312
29

C     0.44904   2.29746  -1.28602
C     0.63709   1.55919   0.01526
O     1.42028   1.98552   0.87167
C    -0.10707   0.32714   0.28683
C    -1.35939  -0.09778  -0.33638
C    -1.67931  -1.47098  -0.42087
C    -2.89523  -1.88241  -0.96256
C    -3.81337  -0.93766  -1.43673
C    -3.50374   0.42397  -1.36406
C    -2.29150   0.84372  -0.81786
C     1.87401  -0.88725  -1.44443
C     2.48450  -1.70484  -0.60579
C     1.38281  -0.74186   1.94982
C     2.58186  -0.00017   2.02521
N     3.63986   0.45596   2.25090
O     0.33091  -0.51614   1.19148
H     1.43480   2.70996  -1.59006
H     0.05310   1.67811  -2.10278
H    -0.21936   3.15440  -1.13147
H    -0.96055  -2.21906  -0.07576
H    -3.13653  -2.94741  -1.01577
H    -4.77122  -1.25376  -1.84969
H    -4.21303   1.17465  -1.70837
H    -2.07021   1.90652  -0.73877
H     2.24905   0.09209  -1.69533
H     0.85213  -1.13026  -1.83808
H     3.41057  -1.41552  -0.09522
H     2.00248  -2.62706  -0.21087
H     1.38279  -1.72585   2.39825
29

C     0.44753   2.29696  -1.28437
C     0.63520   1.56026   0.01784
O     1.42327   1.98450   0.87163
C    -0.11520   0.33333   0.29649
C    -1.36188  -0.09639  -0.33321
C    -1.67971  -1.47012  -0.41932
C    -2.89461  -1.88238  -0.96289
C    -3.81316  -0.93839  -1.43778
C    -3.50458   0.42355  -1.36526
C    -2.29366   0.84430  -0.81737
C     1.88912  -0.89566  -1.46009
C     2.49648  -1.71422  -0.62739
C     1.37042  -0.73030   1.97396
C     2.57878   0.00134   2.02854
N     3.64090   0.45375   2.24699
O     0.33092  -0.51600   1.18980
H     1.43440   2.70982  -1.58940
H     0.05297   1.67754  -2.10214
H    -0.22002   3.15422  -1.13164
H    -0.96062  -2.21864  -0.07504
H    -3.13605  -2.94746  -1.01605
H    -4.77098  -1.25420  -1.85021
H    -4.21330   1.17434  -1.70904
H    -2.07112   1.90673  -0.73840
H     2.25217   0.09118  -1.69773
H     0.85352  -1.12956  -1.83935
H     3.41221  -1.41697  -0.09693
H     2.00324  -2.62777  -0.21310
H     1.37899  -1.72361   2.40338
29

C     0.44602   2.29646  -1.28272
C     0.63331   1.56132   0.02043
O     1.42625   1.98347   0.87159
C    -0.12333   0.33952   0.30615
C    -1.36437  -0.09501  -0.33003
C    -1.68011  -1.46927  -0.41778
C    -2.89399  -1.88235  -0.96321
C    -3.81295  -0.93912  -1.43883
C    -3.50542   0.42314  -1.36646
C    -2.29581   0.84488  -0.81689
C     1.90422  -0.90407  -1.47576
C     2.50845  -1.72360  -0.64899
C     1.35804  -0.71873   1.99811
C     2.57570   0.00285   2.03186
N     3.64194   0.45155   2.24308
O     0.33093  -0.51586   1.18812
H     1.43400   2.70968  -1.58875
H     0.05285   1.67697  -2.10150
H    -0.22069   3.15403  -1.13181
H    -0.96069  -2.21822  -0.07432
H    -3.13558  -2.94751  -1.01632
H    -4.77074  -1.25464  -1.85074
H    -4.21358   1.17404  -1.70971
H    -2.07203   1.90694  -0.73803
H     2.25530   0.09027  -1.70013
H     0.85491  -1.12886  -1.84062
H     3.41385  -1.41842  -0.09865
H     2.00401  -2.62848  -0.21532
H     1.37519  -1.72136   2.40851
29

C     0.44753   2.29696  -1.28437
C     0.63520   1.56026   0.01784
O     1.42327   1.98450   0.87163
C    -0.11520   0.33333   0.29649
C    -1.36188  -0.09639  -0.33321
C    -1.67971  -1.47012  -0.41932
C    -2.89461  -1.88238  -0.96289
C    -3.81316  -0.93839  -1.43778
C    -3.50458   0.42355  -1.36526
C    -2.29366   0.84430  -0.81737
C     1.88912  -0.89566  -1.46009
C     2.49648  -1.71422  -0.62739
C     1.37042  -0.73030   1.97396
C     2.57878   0.00134   2.02854
N     3.64090   0.45375   2.24699
O     0.33092  -0.51600   1.18980
H     1.43440   2.70982  -1.58940
H     0.05297   1.67754  -2.10214
H    -0.22002   3.15422  -1.13164
H    -0.96062  -2.21864  -0.07504
H    -3.13605  -2.94746  -1.01605
H    -4.77098  -1.25420  -1.85021
H    -4.21330   1.17434  -1.70904
H    -2.07112   1.90673  -0.73840
H     2.25217   0.09118  -1.69773
H     0.85352  -1.12956  -1.83935
H     3.41221  -1.41697  -0.09693
H     2.00324  -2.62777  -0.21310
H     1.37899  -1.72361   2.40338
29

C     0.44904   2.29746  -1.28602
C     0.63709   1.55919   0.01526
O     1.42028   1.98552   0.87167
C    -0.10707   0.32714   0.28683
C    -1.35939  -0.09778  -0.33638
C    -1.67931  -1.47098  -0.42087
C    -2.89523  -1.88241  -0.96256
C    -3.81337  -0.93766  -1.43673
C    -3.50374   0.42397  -1.36406
C    -2.29150   0.84372  -0.81786
C     1.87401  -0.88725  -1.44443
C     2.48450  -1.70484  -0.60579
C     1.38281  -0.74186   1.94982
C     2.58186  -0.00017   2.02521
N     3.63986   0.45596   2.25090
O     0.33091  -0.51614   1.19148
H     1.43480   2.70996  -1.59006
H     0.05310   1.67811  -2.10278
H    -0.21936   3.15440  -1.13147
H    -0.96055  -2.21906  -0.07576
H    -3.13653  -2.94741  -1.01577
H    -4.77122  -1.25376  -1.84969
H    -4.21303   1.17465  -1.70837
H    -2.07021   1.90652  -0.73877
H     2.24905   0.09209  -1.69533
H     0.85213  -1.13026  -1.83808
H     3.41057  -1.41552  -0.09522
H     2.00248  -2.62706  -0.21087
H     1.38279  -1.72585   2.39825
29

C     0.45056   2.29796  -1.28766
C     0.63898   1.55812   0.01267
O     1.41730   1.98655   0.87171
C    -0.09894   0.32094   0.27717
C    -1.35689  -0.09916  -0.33956
C    -1.67890  -1.47183  -0.42241
C    -2.89585  -1.88244  -0.96223
C    -3.81359  -0.93692  -1.43567
C    -3.50290   0.42438  -1.36286
C    -2.28935   0.84313  -0.81834
C     1.85890  -0.87884  -1.42876
C     2.47252  -1.69546  -0.58419
C     1.39520  -0.75342   1.92567
C     2.58494  -0.00167   2.02189
N     3.63882   0.45816   2.25482
O     0.33090  -0.51628   1.19316
H     1.43520   2.71009  -1.59071
H     0.05323   1.67868  -2.10342
H    -0.21869   3.15459  -1.13130
H    -0.96047  -2.21949  -0.07647
H    -3.13700  -2.94737  -1.01549
H    -4.77146  -1.25331  -1.84916
H    -4.21275   1.17495  -1.70770
H    -2.06930   1.90632  -0.73914
H     2.24593   0.09300  -1.69294
H     0.85073  -1.13096  -1.83681
H     3.40893  -1.41407  -0.09350
H     2.00172  -2.62635  -0.20864
H     1.38659  -1.72810   2.39312
29

C     0.45207   2.29846  -1.28931
C     0.64087   1.55706   0.01008
O     1.41431   1.98758   0.87176
C    -0.09081   0.31475   0.26752
C    -1.35440  -0.10055  -0.34274
C    -1.67850  -1.47268  -0.42395
C    -2.89647  -1.88247  -0.96191
C    -3.81380  -0.93619  -1.43462
C    -3.50206   0.42479  -1.36166
C    -2.28719   0.84255  -0.81882
C     1.84380  -0.87043  -1.41309
C     2.46054  -1.68608  -0.56260
C     1.40759  -0.76498   1.90152
C     2.58803  -0.00318   2.01857
N     3.63778   0.46036   2.25873
O     0.33090  -0.51641   1.19484
H     1.43560   2.71023  -1.59136
H     0.05335   1.67925  -2.10405
H    -0.21802   3.15478  -1.13112
H    -0.96040  -2.21991  -0.07719
H    -3.13748  -2.94732  -1.01522
H    -4.77170  -1.25287  -1.84864
H    -4.21247   1.17525  -1.70704
H    -2.06838   1.90611  -0.73951
H     2.24281   0.09391  -1.69054
H     0.84934  -1.13166  -1.83554
H     3.40729  -1.41262  -0.09178
H     2.00095  -2.62564  -0.20641
H     1.39040  -1.73035   2.38799
29

C     0.45358   2.29896  -1.29096
C     0.64276   1.55599   0.00749
O     1.41133   1.98861   0.87180
C    -0.08268   0.30855   0.25786
C    -1.35191  -0.10194  -0.34592
C    -1.67809  -1.47353  -0.42550
C    -2.89709  -1.88250  -0.96158
C    -3.81401  -0.93546  -1.43357
C    -3.50122   0.42520  -1.36046
C    -2.28503   0.84197  -0.81930
C     1.82869  -0.86203  -1.39742
C     2.44856  -1.67670  -0.54100
C     1.41997  -0.77655   1.87738
C     2.59111  -0.00469   2.01525
N     3.63674   0.46257   2.26264
O     0.33089  -0.51655   1.19652
H     1.43600   2.71037  -1.59201
H     0.05348   1.67981  -2.10469
H    -0.21736   3.15496  -1.13095
H    -0.96033  -2.22033  -0.07791
H    -3.13795  -2.94727  -1.01494
H    -4.77193  -1.25243  -1.84811
H    -4.21219   1.17555  -1.70637
H    -2.06747   1.90590  -0.73988
H     2.23969   0.09482  -1.68814
H     0.84795  -1.13236  -1.83427
H     3.40565  -1.41117  -0.09007
H     2.00019  -2.62492  -0.20418
H     1.39420  -1.73259   2.38286
29

C     0.45509   2.29946  -1.29261
C     0.64465   1.55493   0.00491
O     1.40834   1.98964   0.87184
C    -0.07455   0.30236   0.24820
C    -1.34942  -0.10332  -0.34910
C    -1.67769  -1.47439  -0.42704
C    -2.89771  -1.88253  -0.96125
C    -3.81423  -0.93473  -1.43251
C    -3.50038   0.42561  -1.35926
C    -2.28288   0.84139  -0.81978
C     1.81359  -0.85362  -1.38176
C     2.43658  -1.66732  -0.51940
C     1.43236  -0.78811   1.85323
C     2.59419  -0.00620   2.01193
N     3.63570   0.46477   2.26656
O     0.33088  -0.51669   1.19820
H     1.43640   2.71051  -1.59266
H     0.05360   1.68038  -2.10533
H    -0.21669   3.15515  -1.13078
H    -0.96026  -2.22075  -0.07862
H    -3.13843  -2.94722  -1.01467
H    -4.77217  -1.25198  -1.84758
H    -4.21192   1.17585  -1.70570
H    -2.06656   1.90569  -0.74025
H     2.23657   0.09573  -1.68574
H     0.84655  -1.13306  -1.83300
H     3.40401  -1.40973  -0.08835
H     1.99943  -2.62421  -0.20196
H     1.39800  -1.73484   2.37773
29

C     0.45660   2.29996  -1.29426
C     0.64654   1.55386   0.00232
O     1.40536   1.99066   0.87188
C    -0.06642   0.29616   0.23854
C    -1.34692  -0.10471  -0.35228
C    -1.67728  -1.47524  -0.42859
C    -2.89833  -1.88256  -0.96093
C    -3.81444  -0.93400  -1.43146
C    -3.49954   0.42602  -1.35806
C    -2.28072   0.84081  -0.82026
C     1.79848  -0.84521  -1.36609
C     2.42461  -1.65794  -0.49780
C     1.44475  -0.79967   1.82908
C     2.59727  -0.00770   2.00861
N     3.63466   0.46697   2.27047
O     0.33087  -0.51682   1.19988
H     1.43680   2.71065  -1.59331
H     0.05373   1.68095  -2.10597
H    -0.21603   3.15534  -1.13061
H    -0.96019  -2.22117  -0.07934
H    -3.13890  -2.94717  -1.01439
H    -4.77241  -1.25154  -1.84706
H    -4.21164   1.17616  -1.70504
H    -2.06565   1.90548  -0.74062
H     2.23345   0.09664  -1.68334
H     0.84516  -1.13375  -1.83173
H     3.40237  -1.40828  -0.08664
H     1.99866  -2.62350  -0.19973
H     1.40180  -1.73709   2.37260
29

C     0.45811   2.30046  -1.29591
C     0.64843   1.55279  -0.00027
O     1.40238   1.99169   0.87192
C    -0.05829   0.28997   0.22889
C    -1.34443  -0.10610  -0.35545
C    -1.67688  -1.47609  -0.43013
C    -2.89895  -1.88259  -0.96060
C    -3.81466  -0.93327  -1.43041
C    -3.49870   0.42643  -1.35686
C    -2.27856   0.84022  -0.82074
C     1.78337  -0.83680  -1.35042
C     2.41263  -1.64856  -0.47620
C     1.45714  -0.81124   1.80493
C     2.60036  -0.00921   2.00529
N     3.63361   0.46918   2.27439
O     0.33086  -0.51696   1.20156
H     1.43720   2.71078  -1.59396
H     0.05385   1.68152  -2.10660
H    -0.21536   3.15552  -1.13044
H    -0.96011  -2.22159  -0.08006
H    -3.13938  -2.94712  -1.01412
H    -4.77265  -1.25110  -1.84653
H    -4.21136   1.17646  -1.70437
H    -2.06474   1.90527  -0.74099
H     2.23032   0.09755  -1.68095
H     0.84377  -1.13445  -1.83047
H     3.40073  -1.40683  -0.08492
H     1.99790  -2.62279  -0.19750
H     1.40560  -1.73933   2.36747
29

C     0.45963   2.30096  -1.29755
C     0.65032   1.55173  -0.00286
O     1.39939   1.99272   0.87196
C    -0.05016   0.28377   0.21923
C    -1.34194  -0.10748  -0.35863
C    -1.67648  -1.47694  -0.43168
C    -2.89957  -1.88262  -0.96027
C    -3.81487  -0.93254  -1.42935
C    -3.49786   0.42684  -1.35566
C    -2.27641   0.83964  -0.82122
C     1.76827  -0.82839  -1.33475
C     2.40065  -1.63918  -0.45460
C     1.46953  -0.82280   1.78079
C     2.60344  -0.01072   2.00197
N     3.63257   0.47138   2.27830
O     0.33085  -0.51710   1.20324
H     1.43760   2.71092  -1.59462
H     0.05398   1.68209  -2.10724
H    -0.21469   3.15571  -1.13027
H    -0.96004  -2.22201  -0.08077
H    -3.13985  -2.94707  -1.01384
H    -4.77288  -1.25066  -1.84600
H    -4.21108   1.17676  -1.70370
H    -2.06383   1.90507  -0.74136
H     2.22720   0.09847  -1.67855
H     0.84237  -1.13515  -1.82920
H     3.39909  -1.40538  -0.08321
H     1.99714  -2.62208  -0.19527
H     1.40940  -1.74158   2.36234
29

C     0.46114   2.30146  -1.29920
C     0.65221   1.55066  -0.00544
O     1.39641   1.99375   0.87200
C    -0.04203   0.27758   0.20957
C    -1.33944  -0.10887  -0.36181
C    -1.67607  -1.47780  -0.43322
C    -2.90019  -1.88265  -0.95995
C    -3.81508  -0.93181  -1.42830
C    -3.49702   0.42726  -1.35446
C    -2.27425   0.83906  -0.82171
C     1.75316  -0.81998  -1.31909
C     2.38867  -1.62980  -0.43300
C     1.48191  -0.83436   1.75664
C     2.60652  -0.01223   1.99865
N     3.63153   0.47358   2.28221
O     0.33084  -0.51723   1.20492
H     1.43800   2.71106  -1.59527
H     0.05410   1.68266  -2.10788
H    -0.21403   3.15590  -1.13009
H    -0.95997  -2.22243  -0.08149
H    -3.14033  -2.94702  -1.01357
H    -4.77312  -1.25021  -1.84548
H    -4.21080   1.17706  -1.70303
H    -2.06292   1.90486  -0.74173
H     2.22408   0.09938  -1.67615
H     0.84098  -1.13585  -1.82793
H     3.39745  -1.40393  -0.08149
H     1.99637  -2.62137  -0.19305
H     1.41320  -1.74383   2.35721
29

C     0.46265   2.30196  -1.30085
C     0.65410   1.54960  -0.00803
O     1.39342   1.99478   0.87204
C    -0.03390   0.27139   0.19991
C    -1.33695  -0.11026  -0.36499
C    -1.67567  -1.47865  -0.43477
C    -2.90081  -1.88268  -0.95962
C    -3.81530  -0.93108  -1.42725
C    -3.49618   0.42767  -1.35326
C    -2.27210   0.83848  -0.82219
C     1.73806  -0.81158  -1.30342
C     2.37669  -1.62042  -0.41141
C     1.49430  -0.84592   1.73249
C     2.60960  -0.01374   1.99532
N     3.63049   0.47579   2.28613
O     0.33084  -0.51737   1.20660
H     1.43840   2.71120  -1.59592
H     0.05423   1.68322  -2.10851
H    -0.21336   3.15608  -1.12992
H    -0.95990  -2.22285  -0.08221
H    -3.14080  -2.94697  -1.01329
H    -4.77336  -1.24977  -1.84495
H    -4.21053   1.17736  -1.70237
H    -2.06201   1.90465  -0.74210
H     2.22096   0.10029  -1.67375
H     0.83959  -1.13655  -1.82666
H     3.39581  -1.40248  -0.07977
H     1.99561  -2.62066  -0.19082
H     1.41700  -1.74607   2.35208
29

C     0.46416   2.30246  -1.30250
C     0.65599   1.54853  -0.01062
O     1.39044   1.99581   0.87208
C    -0.02578   0.26519   0.19026
C    -1.33446  -0.11164  -0.36817
C    -1.67526  -1.47950  -0.43631
C    -2.90142  -1.88271  -0.95929
C    -3.81551  -0.93034  -1.42620
C    -3.49534   0.42808  -1.35206
C    -2.26994   0.83790  -0.82267
C     1.72295  -0.80317  -1.28775
C     2.36471  -1.61104  -0.38981
C     1.50669  -0.85749   1.70835
C     2.61268  -0.01524   1.99200
N     3.62945   0.47799   2.29004
O     0.33083  -0.51751   1.20828
H     1.43880   2.71134  -1.59657
H     0.05436   1.68379  -2.10915
H    -0.21270   3.15627  -1.12975
H    -0.95983  -2.22328  -0.08292
H    -3.14127  -2.94692  -1.01302
H    -4.77360  -1.24933  -1.84443
H    -4.21025   1.17767  -1.70170
H    -2.06110   1.90444  -0.74247
H     2.21784   0.10120  -1.67135
H     0.83820  -1.13725  -1.82539
H     3.39417  -1.40103  -0.07806
H     1.99485  -2.61995  -0.18859
H     1.42080  -1.74832   2.34695
29

C     0.46567   2.30296  -1.30415
C     0.65788   1.54746  -0.01320
O     1.38745   1.99683   0.87213
C    -0.01765   0.25900   0.18060
C    -1.33197  -0.11303  -0.37135
C    -1.67486  -1.48035  -0.43786
C    -2.90204  -1.88274  -0.95897
C    -3.81573  -0.92961  -1.42514
C    -3.49450   0.42849  -1.35086
C    -2.26778   0.83732  -0.82315
C     1.70784  -0.79476  -1.27208
C     2.35274  -1.60166  -0.36821
C     1.51908  -0.86905   1.68420
C     2.61577  -0.01675   1.98868
N     3.62841   0.48020   2.29396
O     0.33082  -0.51764   1.20996
H     1.43920   2.71147  -1.59722
H     0.05448   1.68436  -2.10979
H    -0.21203   3.15645  -1.12958
H    -0.95975  -2.22370  -0.08364
H    -3.14175  -2.94687  -1.01274
H    -4.77384  -1.24888  -1.84390
H    -4.20997   1.17797  -1.70103
H    -2.06019   1.90423  -0.74284
H     2.21472   0.10211  -1.66895
H     0.83680  -1.13795  -1.82412
H     3.39253  -1.39958  -0.07634
H     1.99408  -2.61924  -0.18636
H     1.42460  -1.75057   2.34181
29

C     0.46719   2.30346  -1.30580
C     0.65977   1.54640  -0.01579
O     1.38447   1.99786   0.87217
C    -0.00952   0.25280   0.17094
C    -1.32947  -0.11442  -0.37452
C    -1.67446  -1.48121  -0.43940
C    -2.90266  -1.88277  -0.95864
C    -3.81594  -0.92888  -1.42409
C    -3.49366   0.42890  -1.34965
C    -2.26563   0.83673  -0.82363
C     1.69274  -0.78635  -1.25642
C     2.34076  -1.59229  -0.34661
C     1.53146  -0.88061   1.66005
C     2.61885  -0.01826   1.98536
N     3.62737   0.48240   2.29787
O     0.33081  -0.51778   1.21164
H     1.43960   2.71161  -1.59787
H     0.05461   1.68493  -2.11043
H    -0.21136   3.15664  -1.12941
H    -0.95968  -2.22412  -0.08436
H    -3.14222  -2.94683  -1.01247
H    -4.77407  -1.24844  -1.84337
H    -4.20969   1.17827  -1.70037
H    -2.05927   1.90403  -0.74321
H     2.21160   0.10302  -1.66656
H     0.83541  -1.13864  -1.82285
H     3.39089  -1.39813  -0.07463
H     1.99332  -2.61852  -0.18414
H     1.42840  -1.75281   2.33668
29

C     0.46870   2.30396  -1.30745
C     0.66166   1.54533  -0.01838
O     1.38148   1.99889   0.87221
C    -0.00139   0.24661   0.16128
C    -1.32698  -0.11580  -0.37770
C    -1.67405  -1.48206  -0.44094
C    -2.90328  -1.88280  -0.95831
C    -3.81615  -0.92815  -1.42304
C    -3.49282   0.42931  -1.34845
C    -2.26347   0.83615  -0.82411
C     1.67763  -0.77794  -1.24075
C     2.32878  -1.58291  -0.32501
C     1.54385  -0.89217   1.63590
C     2.62193  -0.01977   1.98204
N     3.62633   0.48460   2.30178
O     0.33080  -0.51792   1.21332
H     1.44000   2.71175  -1.59853
H     0.05473   1.68550  -2.11106
H    -0.21070   3.15683  -1.12924
H    -0.95961  -2.22454  -0.08507
H    -3.14270  -2.94678  -1.01219
H    -4.77431  -1.24800  -1.84285
H    -4.20942   1.17857  -1.69970
H    -2.05836   1.90382  -0.74357
H     2.20847   0.10393  -1.66416
H     0.83402  -1.13934  -1.82158
H     3.38925  -1.39668  -0.07291
H     1.99256  -2.61781  -0.18191
H     1.43220  -1.75506   2.33155
29

C     0.47021   2.30446  -1.30909
C     0.66355   1.54426  -0.02097
O     1.37850   1.99992   0.87225
C     0.00674   0.24041   0.15163
C    -1.32449  -0.11719  -0.38088
C    -1.67365  -1.48291  -0.44249
C    -2.90390  -1.88283  -0.95799
C    -3.81637  -0.92742  -1.42198
C    -3.49198   0.42972  -1.34725
C    -2.26131   0.83557  -0.82459
C     1.66252  -0.76954  -1.22508
C     2.31680  -1.57353  -0.30341
C     1.55624  -0.90374   1.61176
C     2.62501  -0.02127   1.97872
N     3.62529   0.48681   2.30570
O     0.33079  -0.51805   1.21500
H     1.44040   2.71189  -1.59918
H     0.05486   1.68607  -2.11170
H    -0.21003   3.15701  -1.12907
H    -0.95954  -2.22496  -0.08579
H    -3.14317  -2.94673  -1.01191
H    -4.77455  -1.24756  -1.84232
H    -4.20914   1.17887  -1.69903
H    -2.05745   1.90361  -0.74394
H     2.20535   0.10484  -1.66176
H     0.83262  -1.14004  -1.82031
H     3.38761  -1.39524  -0.07120
H     1.99179  -2.61710  -0.17968
H     1.43600  -1.75731   2.32642
29

C     0.47172   2.30496  -1.31074
C     0.66544   1.54320  -0.02355
O     1.37552   2.00095   0.87229
C     0.01487   0.23422   0.14197
C    -1.32200  -0.11858  -0.38406
C    -1.67324  -1.48376  -0.44403
C    -2.90452  -1.88285  -0.95766
C    -3.81658  -0.92669  -1.42093
C    -3.49114   0.43013  -1.34605
C    -2.25916   0.83499  -0.82507
C     1.64742  -0.76113  -1.20941
C     2.30482  -1.56415  -0.28181
C     1.56863  -0.91530   1.58761
C     2.62810  -0.02278   1.97540
N     3.62425   0.48901   2.30961
O     0.33079  -0.51819   1.21668
H     1.44081   2.71203  -1.59983
H     0.05498   1.68664  -2.11234
H    -0.20937   3.15720  -1.12889
H    -0.95947  -2.22538  -0.08651
H    -3.14365  -2.94668  -1.01164
H    -4.77479  -1.24711  -1.84179
H    -4.20886   1.17918  -1.69836
H    -2.05654   1.90340  -0.74431
H     2.20223   0.10575  -1.65936
H     0.83123  -1.14074  -1.81904
H     3.38597  -1.39379  -0.06948
H     1.99103  -2.61639  -0.17745
H     1.43980  -1.75956   2.32129
29

C     0.47323   2.30546  -1.31239
C     0.66734   1.54213  -0.02614
O     1.37253   2.00198   0.87233
C     0.02300   0.22803   0.13231
C    -1.31950  -0.11996  -0.38724
C    -1.67284  -1.48462  -0.44558
C    -2.90514  -1.88288  -0.95733
C    -3.81680  -0.92596  -1.41988
C    -3.49030   0.43054  -1.34485
C    -2.25700   0.83441  -0.82556
C     1.63231  -0.75272  -1.19375
C     2.29284  -1.55477  -0.26021
C     1.58101  -0.92686   1.56346
C     2.63118  -0.02429   1.97208
N     3.62321   0.49121   2.31353
O     0.33078  -0.51833   1.21837
H     1.44121   2.71216  -1.60048
H     0.05511   1.68720  -2.11297
H    -0.20870   3.15739  -1.12872
H    -0.95940  -2.22580  -0.08722
H    -3.14412  -2.94663  -1.01136
H    -4.77502  -1.24667  -1.84127
H    -4.20858   1.17948  -1.69770
H    -2.05563   1.90319  -0.74468
H     2.19911   0.10666  -1.65696
H     0.82984  -1.14144  -1.81777
H     3.38433  -1.39234  -0.06776
H     1.99026  -2.61568  -0.17523
H     1.44360  -1.76180   2.31616
29

C     0.47475   2.30596  -1.31404
C     0.66923   1.54107  -0.02873
O     1.36955   2.00300   0.87237
C     0.03113   0.22183   0.12265
C    -1.31701  -0.12135  -0.39042
C    -1.67243  -1.48547  -0.44712
C    -2.90576  -1.88291  -0.95700
C    -3.81701  -0.92523  -1.41882
C    -3.48946   0.43096  -1.34365
C    -2.25485   0.83383  -0.82604
C     1.61721  -0.74431  -1.17808
C     2.28087  -1.54539  -0.23862
C     1.59340  -0.93842   1.53932
C     2.63426  -0.02580   1.96875
N     3.62217   0.49342   2.31744
O     0.33077  -0.51847   1.22005
H     1.44161   2.71230  -1.60113
H     0.05523   1.68777  -2.11361
H    -0.20803   3.15757  -1.12855
H    -0.95932  -2.22622  -0.08794
H    -3.14460  -2.94658  -1.01109
H    -4.77526  -1.24623  -1.84074
H    -4.20830   1.17978  -1.69703
H    -2.05472   1.90298  -0.74505
H     2.19599   0.10758  -1.65457
H     0.82844  -1.14214  -1.81650
H     3.38269  -1.39089  -0.06605
H     1.98950  -2.61497  -0.17300
H     1.44740  -1.76405   2.31103
