16

C -2.561616188 -1.133525060 1.601751913
C -0.401389942 -0.189602874 -0.045597599
C -0.638775032 -1.045380051 -2.789131107
C 2.340710814 -0.540293864 0.957818873
O 3.458145499 1.738844722 0.184353215
C -0.029799394 2.595766790 0.136397087
N -0.066268311 4.727720749 0.850258667
H -2.494749155 -3.194112984 1.674771932
H -2.416131465 -0.410405447 3.525877044
H -4.394752650 -0.586620538 0.832223329
H -2.388057959 -0.359567374 -3.639173003
H -0.659840509 -3.106523819 -2.849741786
H 0.955349814 -0.365130463 -3.900840451
H 2.349587897 -0.808756389 3.018457252
H 3.240732792 -2.177394465 0.069090201
H 2.137608209 4.046452334 0.971713160

