11

C -1.733530679 -2.413218471 1.625239508
C -0.474693080 -0.178376861 0.442584611
C 1.423030914 -0.383605522 -1.153188814
O 2.665168493 1.655887124 -2.312891815
C 1.888808247 3.898090635 -1.794811455
N 1.244308535 5.932995063 -1.376676461
H -3.743315753 -2.445928194 1.158270079
H -0.895870873 -4.185092695 0.989245416
H -1.584597168 -2.327310463 3.681598848
H -1.169921375 1.689706079 0.936311598
H 2.282964941 -2.119968258 -1.793447659

