11

O 1.086830722 -1.069570095 -3.669132759
C -1.178652023 -0.956817337 2.436763741
N -0.382520063 1.487153365 2.279130044
C 0.899127646 1.842500584 -0.116654098
C 0.453373190 -0.668037479 -1.511968512
C -0.835858463 -2.295831443 0.290740714
H -2.029590179 -1.610356328 4.178733843
H 0.135256656 2.442019390 3.832565855
H 0.121406797 3.413639104 -1.200787481
H 2.929255433 2.136116913 0.123887818
H -1.426148943 -4.211497668 -0.063823516

