11

O -1.973007281 -0.512175571 -1.754893277
C -1.389205459 -0.651996237 1.388616941
N -0.611320260 1.894169929 1.884419037
C 1.375620936 1.864256660 -0.113261208
C 0.403614017 -0.753758083 -0.953785971
C 0.869663320 -2.710126684 0.821213293
H -3.018824936 -1.586369335 2.178552565
H 0.096309722 2.060044778 3.652754427
H 1.082890340 3.349386885 -1.501158787
H 3.299556470 1.812057719 0.597967474
H -0.286119691 -4.355608447 0.330780817

