11

C 1.793419199 -0.163825479 -0.744133349
C -0.342936839 1.132104364 -1.207388672
C 1.530110997 0.978487715 -3.310472435
H 2.629888308 2.665846093 -3.656687250
H 1.195352496 -0.173170099 -4.989293276
C -2.062624330 -0.981913089 -0.199841070
H -3.223442667 -0.437335519 1.407402709
H -3.271672125 -1.782495789 -1.665121044
C 0.380989593 -2.464027103 0.332558595
H 0.832333840 -2.894195023 2.291794100
H 0.642157434 -4.159920504 -0.810061585

