14

O 1.698000351 1.707255757 2.933780231
C 0.974238061 0.159649109 0.523657452
C 1.208137325 1.494944857 -1.908315757
C -1.282330505 1.442688941 -0.462104575
C -2.454797511 -1.244899377 -0.832026533
C -0.231380486 -2.410040746 0.701072896
H 3.257067017 2.635187270 2.710830116
H 2.202975026 3.285574103 -1.937366385
H 1.569466755 0.338072949 -3.572352968
H 0.086469540 2.772317061 2.417208987
H -4.310739811 -1.500836116 0.019195762
H -2.536752929 -1.876417445 -2.796160075
H -0.786125028 -2.845117494 2.634864146
H 0.824079044 -4.005064516 -0.073507436

