9

C 0.048374513 1.912695670 3.431412620
C 0.814057051 0.526629613 1.517562120
C 1.975521354 -1.703266583 0.443937012
H 0.902909990 -3.423868135 0.156687983
H 3.991550139 -1.960098902 0.724442686
N 1.096278521 0.480421577 -1.094574215
H 2.505055854 1.592961210 -1.757265262
H -0.668258237 3.806753311 3.143092230
H 0.107174834 1.167338176 5.332875078

