15

C 3.765795274 0.754019829 -0.621284804
C 1.643945888 -0.778337807 0.446421681
O 2.198386412 -3.313935150 0.384460150
C -0.938084463 0.089465361 0.534193091
O 0.540222111 0.129854647 2.751824134
C -3.540262187 -0.786999518 0.111506427
C -2.731933425 1.928541439 -0.500140245
H 4.106063631 0.219802946 -2.581738956
H 3.303518942 2.755516659 -0.528050498
H 5.482458768 0.400490584 0.462639915
H 0.790542433 -4.228089256 1.077453806
H -4.739181031 -1.041362796 1.750005690
H -3.911944387 -2.060947443 -1.447530797
H -2.569766634 2.473621413 -2.465762042
H -3.409892174 3.391918233 0.759092081

