15

C 3.367910963 0.624684837 -1.329171997
C 1.563372747 -1.028955308 -0.004470714
O 2.273029687 -3.327533695 0.393898954
C -0.826755236 -0.236406458 1.120443639
O -0.272170753 -0.882762297 3.506625572
C -3.348905798 -0.539622917 -0.187767534
C -2.250953377 2.059823510 0.280063912
H 5.078928201 -0.373885470 -1.873286452
H 2.456290602 1.484798029 -2.967225133
H 3.826779873 2.163127581 -0.029489044
H 1.104820423 -3.891561574 1.739109491
H -4.862332933 -1.162380611 1.040645777
H -3.451646598 -1.212032183 -2.119549910
H -1.627379094 3.138555754 -1.346714683
H -3.058763920 3.169616936 1.794651584

