14

C 2.399039063 2.469613379 0.238485175
O 0.909017112 -0.730458383 -1.052848363
C 0.235695316 -2.454776761 0.967014451
C -2.391222929 -1.307441960 1.254843078
C -1.730108612 0.415415395 -1.035858855
O -1.374011777 2.818441383 -0.723294205
H 2.705130985 3.695765765 -1.358111659
H 3.933713427 1.155423925 0.583715292
H 1.694757997 3.384550587 1.917454152
H 1.536358697 -2.270312431 2.560096981
H 0.285606063 -4.396584966 0.278804296
H -2.675154562 -0.203876334 2.966462269
H -3.962238711 -2.606024185 0.977221750
H -2.656377658 -0.143837789 -2.815897755

