18

C 3.936814676 -1.838624264 -0.993599382
C 2.046109881 -0.479497992 0.716075527
C 0.001443316 0.624790624 -0.954067654
C -1.645373935 3.153957210 1.004717095
C -3.079240047 0.020573675 0.561377312
C -1.947500759 -1.285677304 -1.633273887
H 3.060278082 -3.431072678 -1.970692007
H 5.520986845 -2.571257987 0.104410373
H 4.674394549 -0.551353335 -2.425565413
H 1.363263072 -1.822480031 2.155450738
H 3.030994961 1.028952870 1.733024252
H -2.739107845 3.337484955 2.764763939
H -2.429413330 4.426850593 -0.398219360
H 0.241720500 3.783082526 1.513737938
H -2.920889294 -0.945135485 2.357986142
H -4.908230922 0.876277399 0.236693658
H -2.902329028 -1.055035040 -3.437139039
H -1.457827613 -3.246141112 -1.249049518

