8

C -1.862783789 -0.524829555 1.138122141
C -0.073213168 -1.659722985 -0.808840538
H 1.764717831 -2.093120447 0.022401569
H -0.830013559 -3.412025183 -1.591934125
H 0.246511088 -0.361880172 -2.380238650
H -1.105245196 1.226740601 1.922191052
H -2.183854380 -1.822903632 2.709103511
H -3.700190805 -0.089734836 0.306534289

