10

C -2.050432251 0.386393983 0.052567759
C 0.227352837 -1.300853751 -0.188424195
C 3.194394534 1.144838454 -0.071576212
O 2.839614895 2.608528488 1.536582818
H -1.691876713 1.894925479 1.421270653
H -3.718287200 -0.639454521 0.713853795
H -2.543311489 1.263182231 -1.750532583
H 0.680335023 -2.359987589 1.524755041
H 0.130735089 -2.606935751 -1.792399277
H 2.931477146 -0.390635152 -1.446099708

