14

N -1.201438964 5.776423752 0.448494521
C -0.726747188 3.512062239 0.391026419
C -0.232121239 1.120463935 0.087479051
C 2.406959509 0.005741630 -0.167691518
C 1.839455744 -2.751312642 -0.574845257
C -0.610837189 -3.259863774 -0.539293896
C -2.216328133 -0.953719226 -0.099530477
H -1.333897011 6.525019707 2.214932514
H 3.449360634 0.819180609 -1.757737958
H 3.563448389 0.299814045 1.521992904
H 3.317732555 -4.137145884 -0.861065954
H -1.424529051 -5.121147669 -0.788058880
H -3.544226020 -0.631536077 -1.651839520
H -3.344141761 -1.131872457 1.625411587

