14

N -1.318235452 6.016229695 0.549425569
C -0.845242427 3.829270078 0.079110757
C -0.294794894 1.316339377 -0.114996600
C 2.354406887 0.248610914 -0.311746664
C 1.834745960 -2.549089629 -0.295983475
C -0.609702408 -3.087301033 -0.238094720
C -2.256639639 -0.767056388 -0.206863632
H -0.779667589 3.756384457 2.282114961
H 3.314153848 0.827946179 -2.055220062
H 3.589415211 0.814231284 1.249600108
H 3.338249746 -3.935439976 -0.354778657
H -1.394388392 -4.976935374 -0.241594417
H -3.443374795 -0.666152421 -1.903404472
H -3.546239561 -0.754930885 1.411704859

