13

C 4.053205969 -0.281744786 -0.154693113
C 1.272554857 -0.092010009 0.169332746
O -0.042287762 0.305854630 -1.997228808
N 0.058751566 -0.260230821 2.218014392
C -2.662667668 0.377342950 -1.297333645
C -2.612921459 0.068146718 1.597590661
H 4.506735760 -1.810327694 -1.461147937
H 4.786882972 1.467920035 -0.961671137
H 4.937371406 -0.630329941 1.665164924
H -3.633909379 -1.160618990 -2.268384268
H -3.453042690 2.172908614 -1.928002376
H -3.691351271 -1.570439019 2.235456546
H -3.359540270 1.721559340 2.580986070

