13

C 4.065068385 -0.189673455 -0.091418941
C 1.254489888 0.076664979 -0.523705394
O 0.477020637 1.178919759 -2.444494232
N -0.203821551 -0.955172917 1.244780324
C -3.345312560 -0.115473964 -0.931964094
C -2.702050467 0.258216392 1.658710545
H 5.006743479 -0.578746937 -1.878196981
H 4.776187273 1.609047220 0.625941468
H 4.479719593 -1.659187682 1.281560139
H -3.669122536 -2.032818681 -1.564382107
H -3.667869647 1.388129486 -2.265753277
H -3.717831984 -0.896221039 3.021130912
H -2.593434735 2.224344068 2.265873823

