11

O 3.503008901 1.045623070 0.332268749
C 1.430647304 0.685146096 -1.293424293
H 2.137897979 1.056293295 -3.209151254
C 0.137219477 -1.845891168 -1.253929282
H 1.086764997 -3.638426297 -1.468322188
C -2.327457352 -1.413610308 -1.015407616
H -3.860987072 -2.762033058 -0.982272307
N -2.923810206 1.219965499 -0.779496531
C -0.826514976 2.394547032 -0.873594933
H -0.701874783 4.436428916 -0.722766045
H 2.987723068 0.593918112 2.012572212

