17

C 4.815140198 -0.273290246 1.229319208
O 2.311765368 0.608273681 1.198103446
C 0.737081382 -0.769683788 -0.459903346
C -1.938753198 0.166311281 -0.435378254
C -3.663173149 -1.204031196 -2.223942577
C -2.814176970 2.033519959 1.010063848
O -1.545554444 3.452112473 2.707480765
H 4.904895140 -2.240683094 1.874684056
H 5.879306054 0.912601941 2.530616082
H 5.672941423 -0.149898708 -0.653278019
H 1.502733552 -0.648228992 -2.393121820
H 0.777521275 -2.785034256 0.066360378
H -3.019279699 -1.031723473 -4.182658842
H -5.578604519 -0.452598402 -2.126446560
H -3.758176012 -3.225546650 -1.792728240
H -4.788161239 2.578058299 0.900289865
H 0.194301961 2.885175058 2.708125124

