17

C 4.325442126 -0.931284832 1.445238559
O 1.754586405 -0.407290536 1.021378829
C 1.200899126 0.099495725 -1.579830070
C -1.464461250 0.767322235 -2.213528674
C -3.685557881 -1.013374799 -0.263850837
C -3.067385455 1.812538069 -0.194446336
O -2.092872571 2.790379101 2.049743994
H 4.931049252 -2.597544946 0.371651587
H 4.565111876 -1.305500286 3.454517584
H 5.522639353 0.672888444 0.908190206
H 2.286514546 1.759929794 -2.204743829
H 1.849810819 -1.508414088 -2.713907667
H -2.619202720 -1.580264782 -2.202716927
H -5.572273369 -1.509739277 -0.895596636
H -2.955090011 -2.049277345 1.342566300
H -4.613351368 3.025421422 -0.784173414
H -0.529771831 1.912748223 2.400901274

