18

C -2.995799606 -0.163093134 -2.840913590
C -2.531593391 -1.560823696 -0.443933649
C 1.553898152 1.088204571 0.615907419
C 1.818791721 3.630383585 1.810752448
N 2.559197981 -0.944780595 1.833027198
C 2.009141206 -3.283394946 1.063810947
O 0.615129343 -3.484174246 -0.854733463
H -2.854437547 1.876817897 -2.589915801
H -1.605609128 -0.728691452 -4.266181297
H -4.857700005 -0.615491225 -3.621798351
H -2.810163078 -0.554275985 1.312698045
H -3.298659606 -3.454537558 -0.390308040
H 1.500684352 0.920900390 -1.415203800
H 0.530831986 4.965797101 0.910390735
H 1.330259836 3.590143133 3.820146708
H 3.725879307 4.436916578 1.648647470
H 3.372006207 -0.718000194 3.542228069
H 2.539264149 -4.854607392 2.281941824

