11

C -2.553264941 -0.852823044 -1.802474181
N -1.594538847 -0.257313386 0.676704614
C 0.678704794 0.372455041 1.009890447
N 1.606089043 1.111903513 3.315234205
C 2.563309043 0.486306770 -1.016612921
N 4.034088026 0.535547269 -2.608234560
H -1.125644695 -0.829229001 -3.302735462
H -4.036513697 0.497306809 -2.287526229
H -3.427259796 -2.720059992 -1.749971675
H 0.457420567 0.759308870 4.788912689
H 3.470366868 0.944163448 3.629375170

