9

O 0.705700911 3.451470533 1.124880357
C 0.662770737 1.466960829 -0.218156673
C 1.675369105 -1.050621207 0.769025672
O -0.203087733 -2.481984074 0.322872653
C -1.833775019 -0.314968987 -0.464884286
H 3.292515124 -1.797092109 1.813138511
H 1.452923263 1.506413567 -2.211338822
H -2.748022194 -0.733020039 -2.258438129
H -3.144449356 0.056884158 1.067707487

