10

C -3.004615197 0.354714463 1.387979839
O -0.319305304 -0.004519752 1.465627986
C 0.706260081 -0.682655531 -0.682878084
O -0.272631449 -1.120282842 -2.646917802
C 4.605677890 1.123020772 -0.389014636
O 3.311414142 -0.980282615 -0.323020108
H -3.541884687 0.877061938 3.297865146
H -3.470539740 1.857475095 0.061624177
H -3.934325717 -1.390053171 0.815526540
H 6.573504222 0.440016757 -0.128185452

