10

C -2.861271402 0.465033556 1.304656901
O -0.244688069 -0.139316260 1.573511166
C 0.894344522 -0.746900361 -0.602666146
O -0.049831983 -1.414204079 -2.540796603
C 3.850481064 0.660390022 -0.561762740
O 3.518778798 -1.619452978 0.133816118
H -3.551782732 0.774425772 3.213845050
H -3.087565784 2.178244350 0.180252131
H -3.873402081 -1.087106357 0.409088630
H 5.845001951 1.280698537 -0.576160072

