12

C 2.517077101 -0.242631140 0.105932056
C 0.139698514 1.335635540 0.038625870
C -2.699310931 -2.057326747 -0.291329061
N -2.124898988 0.602071184 -0.132235456
C 0.518691138 4.056263565 0.190750146
N 0.925030084 6.182726452 0.318042589
H 2.619992644 -1.468490619 -1.547731465
H 2.544176038 -1.431471924 1.791231804
H 4.185969604 0.956860631 0.134714191
H -3.554589523 -2.417929218 -2.135042320
H -1.096453642 -3.335895922 -0.033590449
H -4.135698845 -2.487485653 1.123591375

