12

C 2.626728932 -0.506797070 0.322541460
C -0.036187159 0.571509947 0.513772144
C -2.225071783 -1.266299542 -0.431828044
N -1.550007451 0.118700558 2.509001942
C -0.225025885 3.076541443 -0.764810165
N -0.323230246 5.027941501 -1.704584252
H 3.268471533 -0.610785618 -1.634098658
H 2.662473820 -2.374682212 1.187231852
H 3.916255060 0.722707313 1.357849441
H -3.305447729 -0.281209389 -1.871608205
H -1.354136337 -3.041869542 -0.970255993
H -3.571581393 -1.666026147 1.148720254

