15

C 3.489387812 0.063645711 0.409329022
C 0.702088227 0.412551590 0.944998215
C -1.076012134 -1.898857300 0.791858287
C -3.100430642 -0.171791789 -0.398315131
C -0.979246629 1.716496159 -1.054695060
H 4.473779617 1.877970384 0.344149325
H 4.394996103 -1.091341177 1.862277456
H 3.772404138 -0.874128591 -1.410152563
H 0.447148129 1.351560659 2.769650846
H -0.370818161 -3.280627329 -0.571996004
H -1.541315202 -2.881460328 2.542826056
H -4.383597521 0.588485187 1.025697363
H -4.220199366 -0.934088524 -1.949912522
H -1.363424360 3.729127633 -0.831808685
H -0.244760011 1.392457677 -2.958071243

