14

C -3.170094791 0.732916029 0.189118896
O -3.722268891 -1.229560829 -1.116604302
C -1.068516649 -3.038699998 -2.625530600
C 1.027301930 -1.727709605 -1.921974509
C 1.615670785 0.189487374 -0.648540494
C 3.644517470 1.852300590 0.310443584
H -3.626780860 2.589151199 -0.620301410
H -3.350873513 0.599135986 2.252772163
H -0.623870252 0.972968127 0.110896858
H -1.461051183 -4.834839440 -1.724401091
H -1.737549333 -2.876806349 -4.553907898
H 3.655861723 1.893420804 2.372120840
H 5.470769546 1.158649857 -0.340109166
H 3.399979634 3.785014242 -0.365439490

