9

C -1.076677866 1.831409195 -0.882153540
O 1.477215409 2.228071968 -1.291600821
H 2.414033567 1.445749806 0.046690408
H -1.824659264 2.433454396 0.941118098
C -2.697706365 2.105061267 -3.167759713
H -2.606753733 2.975974527 -5.001803187
C -2.308161642 -0.370357181 -2.204352258
H -1.788488980 -2.156757125 -3.024315044
O -4.791520964 0.696607436 -2.197249194

