14

N -4.620638058 -1.037275035 -0.299086406
C -2.129272929 -0.523190274 -0.206519608
C -0.207841641 -2.347727083 -0.135028887
C 1.866922610 -0.822415027 0.135161263
N 4.306800488 -1.604828784 0.310244539
C 1.298356025 1.975739579 0.272537190
N -1.400274511 1.978381190 -0.186645679
H -5.871796869 0.266191735 -0.875442008
H -5.060314493 -2.867601663 -0.543949388
H 1.752122844 2.752026240 2.134785657
H 5.737593848 -0.398320573 0.012256783
H 4.615337433 -3.434768831 -0.094924628
H 2.315379337 3.067403162 -1.158919200
H -2.482361358 3.255920369 0.718967431

