16

C -4.909474249 0.142824877 -0.210406359
C -2.331711503 1.383761233 -0.525344656
C -0.207825408 -0.481301490 -0.104966954
O 2.124097499 0.855076467 -0.440365581
C 4.316020159 -0.346060273 -0.131020287
O 4.044214520 -2.789394194 0.496954998
N 6.470651493 0.637747607 -0.382180838
H -5.140217386 -0.644296491 1.684182050
H -6.422936041 1.508630140 -0.509471240
H -5.177728223 -1.391654789 -1.565270183
H -2.149599031 2.189182652 -2.418328612
H -2.117826178 2.944570510 0.809946973
H -0.279965212 -1.275243748 1.800094752
H -0.307253783 -2.042983083 -1.453135007
H 6.329951065 2.486069057 -0.857837187
H 5.734816612 -3.442688257 0.667031861

