19

C -3.863238775 -0.314679538 1.021726501
C -2.997738049 -0.399388212 -1.703620718
C -0.475760643 0.305665582 -2.824842452
C 1.853966894 1.602413336 -1.756062451
C 2.399821428 1.213489823 1.050573964
C 3.093724534 -1.487416585 1.754207401
C -1.111566159 -2.369736931 -2.382110235
H -4.375272900 1.607388758 1.571797279
H -5.517134014 -1.523226782 1.259074723
H -2.413802189 -0.982152933 2.321220783
H -4.519820489 -0.121149832 -3.051458825
H -0.762667556 0.793537517 -4.805592697
H 3.485395784 0.955713378 -2.854608870
H 1.663258190 3.628215408 -2.120700980
H 3.960496024 2.468996554 1.560626314
H 0.783131419 1.852724512 2.167228872
H 3.442975873 -1.663034503 3.779981769
H 4.796878735 -2.094010300 0.757561686
H 1.606597738 -2.831709754 1.246542626

