16

C 4.185944112 3.491812444 0.510321787
C 4.180536944 1.303248715 -0.715607649
C -2.482040804 -2.545697665 0.723817413
C -4.963702359 -2.817084862 0.875085039
C 0.182397405 0.050856952 -2.124850895
C -1.142670012 -0.065878593 0.397994123
N 2.460083963 0.588527933 -2.584515757
H 5.703495573 3.955640581 1.797572288
H 2.724273117 4.892657217 0.202501578
H 5.713303365 -0.040300432 -0.462839300
H -1.282098144 -4.211636280 0.810275653
H -5.827794180 -4.659398703 1.094894825
H -6.223789067 -1.201078914 0.793824566
H -0.993515460 -0.436589247 -3.750925624
H 0.220677398 0.242360550 1.914876131
H -2.520684815 1.474592601 0.479960824

