16

C 3.517530917 1.596307518 0.543788421
C 2.058490932 -0.655107330 0.319831403
C -0.782735691 -0.780358321 1.515852976
C -2.064214440 -2.831269618 0.243003114
C -0.814463116 0.749544995 -2.371237450
C -1.929848317 1.484119410 0.140669739
N 1.529647807 -0.131310284 -2.311400935
H 5.549030418 1.553585138 0.782530637
H 2.622289644 3.427920709 0.485221330
H 3.113644892 -2.403946946 0.569872367
H -0.620542955 -0.846083242 3.569837327
H -1.441264125 -4.776605885 0.435939351
H -3.856971064 -2.535551782 -0.683289345
H -1.598161207 1.343445741 -4.174043939
H -1.321625319 3.353801587 0.776565887
H -3.988927483 1.445912833 0.157416586

