9

O 1.675231476 3.503562610 0.793076462
C 0.110279371 1.873944700 0.351543313
C 2.201614726 0.033670365 0.216607400
O -0.770785328 -2.602317582 -0.551512677
C -2.529331106 -1.043475586 -0.430737993
H 2.992244804 -0.675288075 1.965915006
H 3.326222811 -0.042219071 -1.491075605
H -3.360771578 -0.219891669 -2.146878487
H -3.683429444 -0.849757209 1.285592512

