10

O -4.907475164 1.457413706 0.817080972
C -2.740540655 0.792601384 0.856030836
C -1.779763604 -1.116661806 -1.016208916
N 0.493112826 -1.763218730 -1.334765491
C 2.499904196 -0.573804075 -0.112188089
N 2.957168010 1.752824027 -0.391489931
H -1.386303463 1.494099923 2.274720708
H -3.246197161 -2.027648863 -2.140868289
H 3.693916517 -1.905891843 0.922715623
H 4.590271406 2.232761343 0.497216480

