13

O -5.344727062 0.136308402 2.255762730
C -3.475904427 -0.726889409 0.924047483
C -0.977671467 0.524248275 1.319323557
N 1.120728440 -0.973331408 0.436753162
C 1.651473291 -0.840415688 -2.244427832
C 3.329258656 0.417960176 -0.392251075
H -5.712521378 -1.471072117 0.787809077
H -0.769800875 0.932447070 3.340012067
H -1.148021792 2.366680413 0.339325988
H 0.449798073 0.360176036 -3.397893206
H 2.213571627 -2.599765620 -3.124771562
H 5.136175168 -0.407015354 0.101253718
H 3.257102865 2.468322791 -0.295780972

