16

C 2.550036797 -1.429201399 0.102609237
C 0.474365609 0.455287407 -0.495348939
C 1.306617548 3.189488332 -0.330246837
N -1.240312123 -0.044784223 -2.371170251
C -3.269737121 -2.142825913 0.830114168
C -2.234069808 0.244561269 1.272480780
O -3.040136228 2.111290598 2.270642793
H 3.310679247 -1.107849295 1.990138461
H 4.095549856 -1.197411032 -1.248515254
H 1.901965106 -3.382119870 -0.008895281
H 2.960189116 3.466858421 -1.534412921
H 1.800804438 3.674383949 1.609426866
H -0.197719418 4.438155653 -0.956512733
H -1.106194821 -1.851293952 -3.014443172
H -5.082419773 -2.609091853 1.674165519
H -2.065221721 -3.703549869 0.319494220

