16

C 5.668902115 1.076706382 4.766860398
C 3.823793085 0.842149701 2.736959283
C 2.290980819 0.649504330 1.074138489
C 0.516328074 0.422677329 -0.944850212
C -1.972371634 0.218325691 -0.634642334
C -3.822141200 -0.060471406 -2.764671985
N -5.292559755 -2.394027244 -2.718241527
H 5.512103072 2.912830727 5.693168409
H 7.588047855 0.889363261 4.036949411
H 5.377002810 -0.384446847 6.192603994
H -4.126454040 -3.906883266 -2.626104510
H 1.296693822 0.428396642 -2.845878940
H -2.744229589 0.204612723 1.270653641
H -2.820057646 0.045427240 -4.568036964
H -5.154260735 1.520450774 -2.742046955
H -6.415415025 -2.458961976 -1.172553007

