16

C 3.475134552 -0.207457195 0.742973397
C 0.707764908 -0.043466611 0.151773297
C -0.526479588 0.656872032 -2.413130259
C -2.750795423 0.164390299 -0.588878458
C -1.287589650 -2.181780009 0.346113488
C -1.280664484 1.707768062 1.404705427
H 4.399815170 1.614032639 0.445000059
H 4.405013126 -1.600899722 -0.463074099
H 3.776899947 -0.760193432 2.708894696
H -0.268077776 2.600896810 -3.056397095
H -0.271449199 -0.694444966 -3.952207742
H -4.758863492 0.286119143 -1.017267730
H -1.731359214 -2.853152288 2.246729499
H -1.090705114 -3.744704022 -0.987331104
H -1.076285464 3.730369296 1.047707759
H -1.722358316 1.325649944 3.384388883

