9

O -2.284094411 -1.203553794 -1.611924101
C -0.349609859 0.387543862 -2.333225722
H -0.428101410 0.775284596 -4.346545226
C 0.639881580 2.468998424 -0.700755630
H 0.930237565 4.483312832 -0.716605236
O 1.403636503 0.870465320 1.357008664
C 2.224437477 0.328316935 -1.174085329
H 4.179844699 0.091008001 -1.685728470
H -2.106563070 -1.472186621 0.179415984

