12

O -2.907252671 -0.460296182 -2.073199237
C -0.428535329 0.259647311 -2.271850195
C 0.635537950 2.180133661 -0.437156410
O -0.778950532 1.944539010 1.708620272
C 1.581177123 -0.379663043 -0.416450568
O 0.779448343 -2.349815269 3.172823972
H -3.443039482 0.323467936 -0.496477011
H 0.297579481 0.166134120 -4.196591320
H 1.615588242 3.924990187 -0.901680912
H 0.011790341 -0.656494522 3.359785802
H 3.249942410 -1.514569455 -0.170312644
H -0.601681069 -3.448482365 2.737725133

