12

N -2.805627962 -1.452883579 0.800070357
C -2.302717114 0.470821919 -0.773058328
C 1.876470225 1.418496270 0.309044639
O 2.076182378 -0.052108215 2.441174021
C 3.120912269 0.448930632 -1.923193439
N 3.990887696 -0.344985907 -3.751980601
H -3.751109967 -1.116790175 2.416595242
H -2.815541825 -3.265941190 0.208104804
H -1.760130502 -0.181062200 -2.650067409
H -0.716116269 2.016887326 -0.089101267
H 2.411189831 3.367845994 0.704007339
H 0.760695608 -1.332826821 2.363866252

