11

N 4.294738706 2.417180396 0.731463604
C 2.017859099 1.941534875 0.427832445
O -0.047944090 2.918237215 0.127883115
C -2.564794934 -0.130514143 0.688589725
C -0.723820985 -1.713922579 -0.410001537
O 1.575871887 -1.395927781 0.376515042
H 5.376478392 0.850649746 0.857740452
H -4.394148977 0.129385806 -0.203863446
H -2.347694864 0.389465411 2.650427156
H -2.152111838 -3.008494578 0.907780381
H -1.075904306 -2.430828999 -2.319424750

