9

C 0.160858363 -2.083130145 0.196613512
H 1.042686058 -3.214881395 -1.260319050
H 1.458094555 -1.371818920 1.608178475
C -2.455139551 -2.783257989 1.025437261
H -3.347191174 -4.391993140 0.132636173
H -2.932463413 -2.543417559 2.999254498
C -2.039087904 -0.455720683 -0.533502680
H -2.649658736 -0.483491664 -2.484873088
H -2.233102986 1.361510955 0.383797688

