14

C 3.871152079 -0.230287827 -0.845752672
N 3.550913024 -2.257213907 0.935029117
C 1.275600850 -0.953850449 0.010894214
C 0.143037698 0.871515762 1.764610155
C -3.909252567 0.502524815 -0.671750678
N -2.226324860 1.424402458 1.324448702
H 4.444128510 -0.787176056 -2.730662055
H 4.595661982 1.566241937 -0.180736751
H 3.891154735 -1.603095754 2.707478252
H 0.162021320 -2.115632149 -1.268417245
H -4.239092375 -1.523382533 -0.482212583
H -5.716436210 1.475041355 -0.525311095
H -3.113741590 0.881170864 -2.533919625
H -3.021677251 2.680044625 2.514360506

