10

N 2.967683977 0.384645778 0.714399434
C 0.236237327 0.274154984 0.378265515
C -1.206576619 2.395712559 0.341357160
O -3.578208436 1.245644231 -0.015676847
C -3.263371106 -1.262792135 -0.138198279
N -0.954464893 -2.012198027 0.090034603
H 3.926737503 -0.340145789 -0.791366486
H 3.554437401 -0.531312581 2.304862199
H 3.356841514 2.271838970 0.878485827
H -4.915333590 -2.429837668 -0.409305211

