13

C 3.528167335 -0.033286524 0.158845427
C 0.711781937 0.041671900 -0.057458748
C -0.843839078 -1.892150946 -0.974192651
N -3.453627428 -1.090306457 -0.939925095
C -3.370175308 1.221952432 0.107477512
C -0.910161266 2.004528423 0.599761825
H 4.130111208 0.030430449 2.131824797
H 4.294152324 -1.754150936 -0.676015714
H 4.387864844 1.576266556 -0.802260587
H -0.339182482 -3.527636757 -2.089697302
H -2.503783690 -2.671241223 0.591014302
H -5.109989138 2.210127828 0.517988028
H -0.361353940 3.798409868 1.409766851

