12

C -3.530881908 0.701982384 0.341124176
C -1.116019091 -0.608167365 -0.173420337
C -0.285599506 -2.848316705 -0.971190557
O 2.335530432 -2.343665117 -0.868672858
C 1.591422708 0.051599085 -0.022993394
O 5.452523844 1.523174569 0.367160463
N 2.886088079 1.938282429 0.586733581
H -3.651439613 1.282693313 2.316814282
H -3.710970445 2.398339146 -0.818115068
H -5.123351864 -0.538229792 -0.068700162
H -0.975229015 -4.665860848 -1.587550111
H 6.162612321 3.106296201 0.892859217

