12

C -3.674605973 0.660308745 0.350839863
C -1.127136615 -0.382567363 -0.067786838
C -0.110600776 -2.461593986 -0.951822772
O 2.570050849 -2.089775556 -0.735366078
C 2.314019774 0.187063025 0.259260333
O 5.613351707 1.177772582 0.881413448
N 2.043452737 2.229106782 1.190793116
H -3.982812008 1.058233250 2.350133423
H -3.924303801 2.425822604 -0.683355599
H -5.121197274 -0.675560101 -0.276379532
H -0.708431301 -4.251115625 -1.731445518
H 6.108520687 2.143612303 -0.579324003

