14

O 3.157799118 -1.844275396 2.736253943
C 3.449954689 -0.666880551 0.370887381
C 0.942153611 -0.219550649 -0.928994276
C 0.267617590 -1.027091660 -3.136159411
C -1.038959688 1.325284698 0.382511370
C -3.768131202 0.774706132 0.100862242
N -2.458858740 0.175469707 2.446163522
H 2.364099198 -0.683925824 3.883823599
H 4.420844533 1.155724354 0.548259626
H 4.630969474 -1.902930510 -0.773762837
H -0.472489602 3.267641471 0.730859799
H -4.319353352 -0.764957035 -1.129881631
H -5.103682045 2.319336197 0.223838437
H -2.081192987 -1.702094575 2.537530514

