14

O 3.098005651 -2.017823515 2.855337662
C 3.613126379 -0.747563920 0.578505071
C 1.457575750 -0.561810550 -1.165705660
C -0.197415040 -0.299585634 -2.839619033
C -1.286130177 1.311938375 -0.334606756
C -3.950100565 0.703007485 0.273660538
N -2.021372931 0.264058461 2.161850806
H 2.137978501 -0.907244738 3.925288915
H 4.366247398 1.150605785 0.924196885
H 5.073097054 -1.813206049 -0.418328578
H -0.723317430 3.277182793 -0.275147128
H -4.763135464 -0.902719052 -0.698981178
H -5.227602140 2.256511723 0.662443134
H -1.598458253 -1.607403687 2.192729857

