12

O -0.129134151 -1.635229319 -2.788173091
C -1.491975682 -1.159354102 -0.818547608
C -0.729173388 -1.455240559 1.814773993
C -0.014190124 1.268732697 1.135677780
C 1.755579815 0.807509812 -2.012258499
O 3.910668538 0.294245022 -1.641952794
H -3.437894230 -0.512077551 -1.124150583
H 0.906042381 -2.651749643 2.115464927
H -2.224682423 -1.720946804 3.190196677
H -1.485817234 2.672723675 1.407037368
H 1.774626138 1.863019759 1.930983079
H 0.891975959 2.188597744 -3.263736144

