12

C -3.408597428 -0.840233349 0.012782485
C -0.760645738 0.024213344 0.216706743
O 1.106789631 -1.682210329 -0.448092917
C 0.296209770 2.208998169 0.826401120
C 3.370781155 -0.544098941 0.402848867
O 2.894563028 2.075636020 0.582062821
H -4.699060955 0.690629042 0.488458752
H -3.808711861 -1.465737798 -1.913275646
H -3.765935586 -2.428953786 1.279510296
H -0.511303708 3.996578171 1.361099751
H 4.883846879 -0.896742717 -0.948094664
H 3.848034908 -1.292394751 2.286779693

