10

O 4.126738841 -0.486180177 0.827557104
C 1.882195226 -0.279012318 0.426602422
C -0.229322158 -1.687422345 1.409283893
N -2.285416728 -0.674389964 0.345071285
N -2.102533456 1.173060266 -1.203593082
C 0.598249648 1.632529599 -1.325987184
H 1.259629471 1.417650618 -3.271401006
H -0.340326560 -3.244699327 2.710690692
H -4.056640036 -1.308171243 0.706543124
H 1.010598282 3.571970544 -0.746231266

