15

C -3.802605514 1.235706256 0.485587993
C -2.059093754 -0.354897142 -1.063630800
N 0.016214436 0.625336302 -2.189277970
C 1.742949528 -1.061234060 -1.309741133
C 2.472971857 -1.192191551 1.410307274
O 4.982057117 -0.292382810 1.834254613
H -3.078134085 1.590359340 2.390549581
H -4.043185243 3.091580942 -0.405908164
H -5.655045377 0.353306314 0.674955691
H -2.611374945 -2.239957080 -1.617759575
H 0.195126581 2.153021722 -3.323192333
H 2.982495707 -2.025244659 -2.646658607
H 2.504086765 -3.133644866 2.107927263
H 1.104772311 -0.136492745 2.551893585
H 5.084742038 1.380945806 1.143058351

