18

C -2.928426372 1.014345174 -0.280945111
C -2.742499375 -1.843303434 0.138591210
C 0.036119035 -2.432316535 -0.413679757
C 1.466863338 -0.197020824 0.740425838
C 4.134517804 0.229487566 -0.220886685
C -0.304061015 2.021269223 0.315250084
N 0.421544873 4.291586473 0.429085730
H -4.377807362 1.943030480 0.854183798
H -1.038508913 5.504343025 0.106564302
H -3.341839470 1.434197381 -2.263912325
H -3.174355878 -2.299263659 2.107452621
H -4.046205762 -2.917536920 -1.040901816
H 0.647443112 -4.251309852 0.339457834
H 0.356492657 -2.472234807 -2.459107239
H 1.529088410 -0.476471123 2.797126935
H 5.349219830 -1.376156711 0.230661294
H 4.134799581 0.482080851 -2.270193246
H 4.941914950 1.928106840 0.617770575

