11

N 4.280268865 -0.502415589 0.339643443
C 1.968498168 -0.005212054 0.184245179
C -0.002617063 -1.950108657 0.575212488
C -2.560191864 -1.371718519 0.943867101
C -2.980676789 1.362671625 0.522161980
N -1.381180113 3.063948761 -0.081870173
O 1.118939568 2.374245969 -0.392598199
H 5.366921253 1.060978947 0.061672856
H 0.721949457 -3.841407449 0.922130016
H -1.424936627 -2.366392778 -1.209504957
H -4.872919027 2.120543415 0.736881317

