8

C -2.718028555 0.349942054 0.968052458
C -2.538135585 -1.746518408 -0.393662606
C -0.118281190 -2.510036341 -1.589782917
O 1.817526814 -1.326396650 -1.436591022
H -0.177479960 -4.298000468 -2.677690178
H -4.149399227 -2.980691718 -0.684451905
H -1.077874232 1.549653109 1.229539267
H -4.476645292 0.921414604 1.844138598

