13

C -2.965507580 -0.262655812 -1.088554908
C -2.484094313 1.847776699 0.670622303
C -0.318573262 0.107428398 -0.044590053
N 1.613213726 1.004617809 -1.654944963
C 3.615150503 -0.118408784 -0.863259246
C 2.995748338 -1.755320715 1.274260316
N 0.622240288 -1.617253412 1.764363810
H -3.178005979 0.149068135 -3.077102937
H -3.942517718 -1.913872629 -0.390623681
H -2.357438556 3.739533769 -0.086984226
H -3.128069078 1.679247824 2.600727737
H 5.452471309 0.163489278 -1.720972448
H 4.273521976 -2.943448693 2.344756358

