16

C -1.907360954 0.045611771 -2.426522200
C -0.111440268 -0.152745807 -0.218681148
C 2.142269464 -1.829285049 -0.756283494
C 0.573619468 2.318585277 1.095254913
C 0.094965786 1.201991388 3.730077069
O -1.548652518 -1.207049599 1.965646779
H -2.496960494 -1.823742633 -3.072935997
H -3.583165225 1.119968260 -1.897174593
H -0.977126583 1.017878074 -3.990526701
H 3.361178455 -1.933385960 0.904133757
H 3.233737687 -1.042355866 -2.317698296
H 1.540925994 -3.730749037 -1.300009573
H 2.534766846 2.883299334 0.789767967
H -0.660618074 3.865010809 0.484743324
H -1.600939955 2.080685671 4.542607770
H -0.764265867 -2.736389021 2.552035296

