14

C 4.245056975 -1.561559593 0.234398586
C 2.183249479 0.633874632 0.995068815
C 0.536854298 -0.513274371 -0.590964735
C -3.933930632 1.205220457 -0.406775170
N -5.165115359 -1.020770318 -0.468826444
C -2.892153344 3.225522632 -0.468066547
O 2.623580478 2.141184194 2.617842797
H 5.897999717 -0.436283508 -0.253665988
H 3.841304705 -2.899675947 -1.275347664
H 4.512597124 -2.600338642 1.985224417
H 0.718385622 -0.139300424 -2.601873931
H -4.052319196 -2.497909817 0.001142113
H -6.849295860 -1.026687693 0.419032482
H -1.949610582 4.997756849 -0.366004064

