17

C -2.789496466 -0.258292019 -0.124852712
C -1.202617567 -2.527967498 0.502966671
O 0.416981883 -3.385140654 -1.032035675
C 3.223815755 -0.794646767 -0.755370775
C 2.154754979 0.506991126 1.489550199
C 0.947372203 2.640496891 0.406662542
C -1.211462355 2.000688651 -1.263396167
H -3.825660909 0.338505790 1.561796300
H -4.180916061 -0.748093931 -1.568501332
H 0.580925527 -0.915978221 2.319335555
H -1.804579204 -3.691034628 2.113717365
H 5.121320049 -1.578597836 -0.613645322
H 2.707726638 -0.186385351 -2.620718904
H 3.533689927 0.890392746 2.966881883
H 1.200108351 4.532246269 1.145985026
H -0.593835285 1.353979452 -3.125387462
H -2.433675380 3.628337030 -1.584801523

