16

C -2.203854334 -1.845939696 2.344073014
C -3.187997263 -0.423880877 0.156370150
C 2.205294249 2.066155056 1.110529512
C 1.124421702 1.435606984 -1.443652512
C 1.008024172 -1.126227600 -2.466259739
C -1.525930621 0.198561461 -1.874722304
H -2.194097867 -0.480167900 3.909194439
H -3.619291025 -3.235245499 2.921789371
H -0.344442346 -2.764830665 2.248379343
H 1.227011664 3.664262840 1.970747527
H 4.187646585 2.592225670 0.879019581
H 2.137419841 0.482398060 2.418823626
H 1.405094087 2.924893057 -2.822926855
H 1.527731700 -2.677412653 -1.238881997
H 1.368277781 -1.439622615 -4.453938834
H -2.424150442 1.008089897 -3.530076960

