16

C -2.172655485 -1.586334318 2.520531709
C -1.914813562 0.752044120 0.978048165
C 2.061650781 1.921580709 0.902983065
C 1.494260379 1.343136373 -1.828811256
C 0.936980372 -1.360577298 -2.445809085
C -1.179067139 0.400409080 -1.749028191
H -2.215220584 -1.210600923 4.546291300
H -4.069346857 -2.253005431 1.997749578
H -0.871955123 -3.150617157 2.120069887
H 0.005025273 2.190435616 1.929477213
H 2.684558255 3.856726873 1.242261678
H 3.266606487 0.585349243 1.899734813
H 2.196413973 2.585461320 -3.292894392
H 1.532212278 -2.822118090 -1.140178011
H 1.080315494 -1.883059379 -4.418524346
H -2.587981118 0.867679825 -3.160304819

