19

C -4.231319176 -1.575657573 1.054912473
C -2.616174811 -0.274842070 -0.942504325
C 1.193535865 -0.061089044 -3.318262718
C 2.991105054 1.802346587 -2.289023157
C 2.730360776 2.016867163 0.590930852
C 1.707392082 -0.594184393 1.289188661
C 0.121905401 -1.335230818 -1.040823223
H -6.136729971 -0.786280988 1.066379161
H -4.385314356 -3.597956565 0.673698362
H -3.452754998 -1.347468174 2.950858196
H -3.478103123 -0.512886353 -2.800698725
H -2.565233956 1.761030069 -0.579807036
H 4.722951345 0.713715372 -2.766200887
H 3.163456977 3.547037630 -3.373289860
H 4.498467226 2.482760695 1.541565157
H 1.374038063 3.499867779 1.067919665
H 0.639663411 -0.607817558 3.052862022
H 3.268577547 -1.929119771 1.518499556
H -0.048583101 -3.374980787 -1.326849977

