19

C -3.512798646 0.125523244 0.913479927
C -2.268558916 -0.989147490 -1.409442460
C 0.683599204 0.049640724 -3.148620983
C 1.888982272 2.157302651 -1.601783925
C 2.401212153 1.271251834 1.130620778
C 1.949610204 -1.596918712 1.066981624
C 0.412902456 -2.078170067 -1.321571650
H -5.489239805 0.550416314 0.513183116
H -3.456643299 -1.198419559 2.495968596
H -2.621561816 1.875128897 1.524231228
H -3.486593757 -2.263771295 -2.465216988
H -2.029198193 0.548879797 -3.027457678
H 3.667427527 2.485775394 -2.607509000
H 0.863716560 3.943823821 -1.726437895
H 4.317149629 1.729146420 1.737535330
H 1.136248874 2.191462418 2.470492045
H 1.026366497 -2.299385981 2.775405024
H 3.737040691 -2.615795298 0.901360225
H 0.523405533 -3.995045207 -2.049056021

