16

C 5.741266720 -0.873919909 -0.613464362
O 3.171232142 -1.703726165 -0.770539852
C 1.446584082 -0.114014944 -0.056495857
C -3.764485240 2.558567021 0.430392929
C -1.078626457 -1.332811590 -0.444994957
C -3.159115123 -0.154765641 1.172217751
H 6.767688585 -2.223559964 0.553898324
H 6.525437242 -0.867423749 -2.517147134
H 5.788814006 1.010282149 0.212111421
H -4.497682328 2.649674251 -1.499525043
H -5.185007864 3.377889813 1.681451188
H -2.069685291 3.729317154 0.517991108
H -1.500873325 -1.017400256 -2.457845979
H -0.962398133 -3.387194994 -0.192934990
H -2.577590157 -0.219840552 3.155209626
H -4.860961162 -1.318454358 1.029899869

