13

C 2.176292169 0.878623456 -1.385316308
C -0.324960763 -0.512448277 -1.330746025
C -1.601935141 -2.809389179 1.108961739
C -1.897284292 -0.094826381 1.146058348
O -0.648917759 1.278528565 3.046581819
H 3.303056224 0.440948486 0.278704651
H 1.873802461 2.920097971 -1.418939921
H 3.251086318 0.361746644 -3.065881328
H -1.521477708 -0.231261981 -2.975802619
H 0.131687663 -3.202183947 2.201751277
H 0.011950949 -2.641449502 -1.432684693
H -3.773925197 0.665680991 0.771414172
H -1.033761222 3.040262594 2.855886514

