15

C 3.315621164 1.687851501 -0.017502662
C 0.902223131 0.288405447 0.382243898
O 0.813514095 -1.224710771 2.702077585
C -1.750862076 1.359067199 0.168640803
C -2.615233029 -1.352753927 -0.434204167
O -3.599281093 -1.512798347 -2.900714824
C 0.160141250 -2.310537084 -0.507795375
H 3.274059850 2.601377613 -1.864538286
H 3.590503145 3.140812465 1.422843358
H 4.922768623 0.391453233 0.005051200
H 2.363036284 -2.183864093 2.803499148
H -2.504906150 2.309448772 1.833957415
H -1.962166187 2.557954220 -1.491144183
H -3.838516716 -2.264191702 0.959528074
H -3.328598575 -3.213672424 -3.482714055

