12

O 2.814403435 0.973748169 -0.099993554
C 4.761039588 -0.050907805 0.958460303
C 0.899199909 -0.729057737 -1.028020668
C -1.299461345 -0.708543513 0.764656152
C -3.333457609 1.130652526 0.495397581
O -3.642909313 -1.408699004 -0.308132751
H 5.903713908 1.620564004 1.532234842
H 1.744097310 -2.602380586 -1.182095198
H 0.320415461 -0.033702642 -2.878566194
H -0.919958381 -1.502515024 2.623096614
H -4.432433298 1.667628219 2.141801851
H -3.237436221 2.522967850 -1.010290691

