11

C -1.624770478 -1.417369332 0.312141598
C 0.302011305 0.109764118 -0.573359215
N -0.266408336 2.462326652 -1.472941000
O -2.574058088 2.949004129 -1.492418274
C 2.912894619 -0.414732127 -0.125416588
C 5.091846520 -0.914692508 0.225779016
H -3.391533654 -1.490919514 -0.710622835
H -1.191652318 -2.974742596 1.568121119
H -3.206621534 0.769313156 2.037446791
H -3.496153598 1.968796423 1.020390767
H 7.034906007 -1.334712447 0.534193337

