14

C -3.368280121 -0.302394258 -0.798675059
C -0.592196250 -0.230745632 -0.265565612
C 0.919984005 -2.093201856 -1.042560788
C 3.557094091 -2.235951106 -0.486036690
N 5.664209887 -2.421193248 0.015310637
O 2.721946090 2.901503482 0.853038209
C 0.257701857 2.036083712 1.253340008
H -4.442309176 -0.011146134 0.942442096
H -3.881020852 1.230497207 -2.084738566
H -3.955563820 -2.088711186 -1.633922100
H 0.166127090 -3.674360460 -2.101728017
H 3.936511431 1.681188913 1.429268408
H -0.100573209 1.602868930 3.257122065
H -0.980288624 3.617686118 0.775537195

