10

O -3.484334004 -0.381899515 1.455048600
C -2.717601156 -0.429751783 -0.999218861
C -2.667618127 -2.509574076 -2.407788986
H -3.252363583 -4.328791457 -1.669146973
H -2.036047467 -2.430362974 -4.346488818
C -1.954623685 2.142920569 -1.861923718
H -3.533090128 3.454504885 -1.650309635
H -0.403726380 2.846722570 -0.697352876
H -1.360134970 2.114191290 -3.829785823
H -3.959153733 -2.056661091 1.968517254

