16

O -3.461376345 0.178182465 1.581473564
C -2.011280320 0.377300054 -0.675979072
C -0.412031916 -1.985798724 -1.113462367
C 1.744189736 -1.678964989 0.781394685
C 2.387325501 1.149664682 0.636300077
C -0.060648511 2.471335789 -0.262976291
H -4.594504109 -1.226168562 1.413456616
H -3.266041100 0.789576972 -2.271852614
H -1.490771813 -3.732207093 -0.882688049
H 0.319225217 -1.959205912 -3.049056057
H 3.360606019 -2.890500174 0.370811017
H 1.067090057 -2.157651079 2.670306678
H 3.049041222 1.881451543 2.444679974
H 3.904935487 1.465574110 -0.726581818
H -0.791844587 3.822163385 1.108959679
H 0.256085480 3.495247512 -2.024786022

