11

C 1.934702211 3.165931668 1.802680804
C 0.670539212 1.043865436 1.421466126
C -2.141143849 0.887695464 1.197403662
C -3.066514651 -0.520504085 -1.100814657
O -1.738143425 -1.569127133 -2.606950907
H -5.153848642 -0.553834640 -1.319117747
H -2.963476842 -0.092784929 2.832719832
H -3.014230010 2.763821702 1.188211202
H 1.685748501 -0.729586369 1.244991860
H 0.981289045 4.974955942 1.959387949
H 3.974779519 3.176763446 1.964044272

