19

C -4.596934864 -0.790087501 -0.529815673
C -2.337028909 0.887953129 0.088759548
C -0.417775549 -0.350836008 1.824173037
C 2.668938686 0.730205784 0.195712170
C 4.896009761 -1.013388689 0.480115876
C 1.676999693 1.516972639 -2.470878570
C -0.854033357 1.660445125 -2.357063238
H -3.968415394 -2.570561169 -1.367317933
H -5.716150143 -1.224062803 1.148938460
H -5.835190889 0.137466521 -1.895165607
H -3.011285156 2.637360814 0.965980733
H -0.124434761 0.507172143 3.657179051
H -0.559548340 -2.401684074 1.977477069
H 2.757884561 2.447929566 1.302124914
H 4.630090260 -2.738579138 -0.615515244
H 5.227450432 -1.511472515 2.452971922
H 6.573676168 -0.065579808 -0.249509101
H 0.955934306 -0.390884425 -0.569283737
H -2.000093878 2.390278935 -3.895525256

