15

C 3.587284771 0.666021897 -0.317807752
C 0.959513410 -0.404181993 -0.634858821
C -0.751278460 -0.588570924 1.729564012
O -1.228754388 2.085559426 1.595361955
C -1.126352170 1.714494032 -1.123451460
C -3.097395308 -0.097636480 -1.898496835
C -3.163043429 -1.625739624 0.506480938
H 4.831791236 -0.751286737 0.519943743
H 3.560537266 2.321788438 0.907130202
H 4.385750070 1.206630722 -2.140394289
H 0.948461517 -2.055155149 -1.873557174
H -0.113143289 -1.238131058 3.575025834
H -0.726514714 3.417078292 -2.196213832
H -4.858515535 -1.081175697 1.567684384
H -3.256298428 -3.654693135 0.154154957

