11

O -3.807831495 1.269348483 1.307867186
C -1.574301903 1.732895108 0.454604875
C 0.020526432 -0.076665584 -0.551279862
C -0.187250543 -2.469324705 1.575793426
O -0.942632430 -2.485979466 -0.997997644
C 2.539708348 0.541964628 -1.557940238
O 3.425852895 2.636271009 -1.553875078
H -0.978463016 3.694414970 0.562282906
H 1.830663906 -3.069357460 1.592838944
H -3.960737947 -0.569968139 1.480743622
H 3.545348177 -1.113884097 -2.345150253

