10

N 3.463724632 -0.293755148 -0.223117790
C 1.373103972 0.187277604 1.049120179
N -0.439220199 -1.467244893 1.091195498
C -2.712977638 -1.350189757 0.259131378
N -3.620556896 0.618847927 -1.240590461
N -2.377985189 2.587982403 -0.601260586
N -0.676460536 3.583002009 0.293920991
H 3.673578415 -1.855861061 -1.302360732
H 4.938527862 0.888289764 -0.081297322
H -4.075506778 -2.799918684 0.742142277

