15

O 3.844467313 -1.926045073 0.400981459
C 1.671397675 -0.455251899 0.845948353
C 1.510524024 1.995040826 -0.673267069
C -1.215879703 2.830740060 -0.479988508
C -3.177160458 -1.320549649 1.213870017
C -0.726621729 -1.859102225 0.077531532
O -2.476730352 -0.110104704 -1.130397091
H 4.394999524 -1.635245287 -1.303034495
H 1.634351843 -0.055112842 2.867193671
H 2.718339132 3.443307898 0.165987269
H 2.230071261 1.603655302 -2.597515901
H -1.810303014 3.721627877 -2.254908328
H -3.270012473 0.021567274 2.756436974
H -4.719967543 -2.650365286 0.996246076
H -0.470559172 -3.596903836 -0.979664712

