15

O 3.886552912 -1.938513997 0.081717578
C 1.739879441 -0.546409963 0.815968906
C 1.419037469 2.014443154 -0.514823776
C -1.394776012 2.354270090 -0.659026849
C -3.052379820 -0.942329072 1.288859660
C -0.730294941 -1.892415980 0.162248181
O -2.030470621 -0.469728202 -1.766693313
H 4.171304668 -1.657000230 -1.688142198
H 1.882030026 -0.329795740 2.862689150
H 2.333406418 3.550421298 0.511040412
H 2.332984687 1.860928966 -2.391852925
H -2.020781787 3.573808643 -2.198506693
H -3.162719266 0.330195928 2.869093734
H -4.744266662 -2.019418085 0.863973449
H -0.568370092 -3.883830761 -0.305756515

