14

C -2.982778486 -0.835263596 1.211787992
C -1.246858588 -0.231465051 -1.015616034
C -1.114564078 4.589223496 -1.825250975
N -1.167248886 2.419046840 -1.471816915
C 1.388557547 -1.359722689 -0.525352536
O 1.614194361 -3.614506635 -0.686013612
C 3.510340112 0.374507964 0.199340444
H -2.282672543 0.046520541 2.938842089
H -4.882078209 -0.133687579 0.841496782
H -3.051086530 -2.874756242 1.476478945
H -1.962302455 -1.144845276 -2.721150232
H 5.147219256 -0.742082599 0.739875191
H 2.939583183 1.617587875 1.744621822
H 3.986346230 1.600114541 -1.391262293

