11

N -3.349527745 -0.655380547 0.445275335
C -0.911782065 0.246928963 0.034583953
C 0.063769432 2.625908469 0.866675493
O 2.622603055 2.282735679 0.767130314
C 3.323684436 -0.182914604 0.193823653
O 5.445138567 -0.917371024 0.113124864
N 1.106541982 -1.432048781 -0.263520324
H -4.186752291 -1.428989409 -1.081941074
H -4.457647327 0.676024407 1.244079821
H -0.833729327 1.919183062 -1.631572963
H 1.023159499 -3.276894156 -0.686593267

