12

C -2.303397605 1.166961780 0.730022537
C -1.234076556 -1.353653058 -0.165774164
C 1.376878340 -1.113304859 -1.270211975
C 2.158632829 -0.657317006 -3.637395433
C 3.622723750 1.068783969 -1.672980415
C 3.629066389 0.265995922 0.576917871
H -4.167305308 0.883483208 1.561989203
H -1.098466049 2.037396429 2.159492163
H -2.480927982 2.487823271 -0.841933554
H -2.416957124 -2.157301101 -1.650429879
H -1.191281856 -2.703314411 1.393846343
H 4.650206470 -0.328757430 2.224247333

