15

C -3.350592643 1.328389348 -0.170350458
C -2.159706269 -1.099258657 -0.282148205
C 2.035797948 -0.225552079 1.294004930
C 3.905527142 -0.816530042 -0.771501269
C 0.986653278 2.114424916 1.514198162
N -0.432254669 3.827363591 1.436572672
H -4.566866260 1.796215956 1.397390770
H -3.397192402 2.514931223 -1.827476222
H -4.462740952 -0.831003000 -1.049071858
H -2.376987565 -2.428429784 1.249645518
H -1.222023032 -1.717699820 -1.985731903
H 2.195817065 -1.297657563 3.036103571
H 3.822752224 -2.818548228 -1.275441489
H 3.500439969 0.281749983 -2.471131264
H 5.858049754 -0.409011831 -0.226340321

