12

O -3.991408429 0.898911575 -0.923164036
C -2.334672704 -0.527035149 0.621956300
C 0.377321521 -0.125417948 -0.001932774
O 1.152672162 -0.889224782 -2.397457324
C 2.047224536 1.071610017 1.438463910
O 4.487187488 1.455798689 0.799435503
H -3.351370322 0.853417892 -2.620169617
H -2.797734916 -2.551333111 0.469254505
H -2.688184923 0.035489869 2.572825288
H 0.769907399 -2.650432220 -2.620455873
H 4.734756974 0.755960918 -0.864836714
H 1.540521480 1.859569573 3.254054737

