12

O -1.845161242 4.224945715 1.118042251
C -1.308671057 2.245043221 0.055051142
C -1.558286814 -0.342965884 0.984319580
C -0.275186718 -2.366827887 -0.349460230
N 2.269472674 -1.684133371 0.602404607
C 2.939347931 0.517859640 -0.213280178
O 1.476449956 2.220845221 -1.203044211
H -2.772197158 -0.678321841 2.609800161
H -2.516335497 1.662586014 -1.721103670
H -0.361293676 -2.201397672 -2.405564967
H -0.800084095 -4.256738770 0.251272971
H 4.930335842 1.033089972 -0.101607304

