16

C -3.217088841 0.490991420 1.695688158
C -2.190906441 -0.695761141 -0.714075365
C -0.076049137 0.843000947 -1.943986171
C 2.820340898 3.353483225 0.350719355
C 2.274061855 1.058619378 -0.297304186
C 3.766030602 -1.238801986 0.446627340
H -1.747893770 0.675184253 3.132160429
H -4.747696968 -0.641492137 2.486296940
H -3.952590903 2.385415158 1.330124513
H -3.711466423 -0.894334809 -2.099488124
H -1.521431920 -2.613672134 -0.328628419
H 0.505225838 -0.022690962 -3.729495071
H -0.774041213 2.733651507 -2.406015421
H 4.366210208 -2.263421450 -1.241360373
H 5.438001166 -0.732205964 1.534329792
H 2.610327507 -2.505536222 1.593215472

