10

O 0.386411444 5.105869403 0.623257187
C 1.558032873 3.274262278 1.204507615
C -0.587743961 -3.878577417 -0.574160345
O -1.792785631 -1.802879282 -1.180101046
C -1.249252115 0.484746914 -0.711306217
O 0.910512244 0.873363593 0.634956878
H 3.327073925 3.248033389 2.280071638
H -1.475146291 -5.576574254 -1.245673012
H 1.155824415 -3.764032670 0.468322889
H -2.463658701 1.990052875 -1.319727977

