10

O 2.029619450 3.520382929 -1.010711174
C 1.714974797 2.100156218 0.672272696
C 0.568392032 -2.443096912 -0.867223249
O -1.788293922 -1.366055879 -1.170117812
C -2.405988852 0.598828339 0.014086850
O -0.789011321 1.589955638 1.628316209
H 3.104613287 1.349974914 2.000135169
H 0.638685781 -4.156012796 -1.977566283
H 1.092141249 -2.597979659 1.112687447
H -4.241760914 1.429428430 -0.301730057

