8

C 5.009670570 -0.096911562 1.297697323
C 2.231645252 -0.157673381 0.678309634
C 0.558822704 -1.342994020 2.057943119
O -0.922207797 -2.395457181 3.281891083
H 1.495997246 0.796334142 -0.974839372
H 5.655210520 1.836050079 1.619396588
H 5.419708919 -1.187125517 2.996164626
H 6.125624806 -0.893558283 -0.243569219

