13

C -4.430379940 -0.281017241 -0.295363967
O -2.023762566 -1.393470778 -0.790532663
C 0.052506740 -0.166287301 -0.148740381
O -0.398238597 2.054991461 0.961269891
C 2.352496960 -1.184483453 -0.630430569
C 4.684190587 0.042280713 0.022128598
O 6.781984326 -0.776438689 -0.363733653
H -4.639174343 1.500871095 -1.306868277
H -5.801077893 -1.645965023 -0.982680658
H -4.698732558 0.031015716 1.722582835
H 2.420460355 -3.005130885 -1.550292214
H 1.178085275 2.859519493 1.384250181
H 4.516667896 1.927140491 0.975195000

