12

C -3.121308110 -0.606019502 0.681701654
C -0.576884196 0.256053071 -0.105256914
C 1.594310550 -1.025810652 -1.458245960
N 3.904632961 -0.924795210 -0.031924882
N 3.008554199 1.343060671 -1.401978136
C 0.836331329 2.332307334 0.053189535
H -4.275319937 -1.088910252 -0.960943384
H -2.995777364 -2.300016525 1.856340182
H -4.102030275 0.859055248 1.746464041
H 1.520562759 -2.215802015 -3.121756221
H 3.487206558 -0.716710456 1.836235556
H 0.760600101 4.176875939 0.927853486

