12

C -3.138873001 -0.648044328 0.646061760
C -0.375636528 -0.122499606 0.520628127
C 1.520593467 -1.149654175 -1.137660669
N 3.990239255 -0.907648667 -0.445661312
N 3.347369470 1.925687027 -0.665232162
C 0.908916957 2.120593172 0.256111747
H -3.895813420 -1.250165571 -1.185091113
H -3.590790497 -2.127449344 2.011295872
H -4.163647252 1.047754473 1.217712019
H 1.142838368 -1.648671829 -3.106569342
H 4.137286045 -1.175490076 1.465115077
H 0.158391930 4.024874704 0.444972715

