14

N -4.838135613 -1.010054267 0.331204626
C -2.448429133 -0.658876975 0.261646660
C -0.139665482 -1.859058156 0.642636650
C 1.871343190 -0.172966613 0.057399789
N 4.364396411 -0.803213160 0.364192573
C 1.016689152 2.128550128 -0.754814950
N -1.741823629 2.028674342 -0.550170612
H -2.680585446 2.371448438 -2.191842404
H -5.252322478 -2.804703017 0.851603906
H 0.067471197 -3.796277123 1.236082784
H 5.632978761 0.241978844 -0.584579237
H 4.758165749 -2.659532196 0.388334448
H 1.950514835 3.922503515 -0.950400432
H -2.473520804 3.210012950 0.780834570

