14

N -4.643181886 -0.730764859 -0.253157841
C -2.234707402 -0.564130586 0.404376522
C -0.037313474 -1.757181679 1.020031908
C 1.980250412 -0.099973372 0.157994994
N 4.488856211 -0.753947169 0.372251159
C 1.044180132 2.081137977 -0.828031784
N -1.669673470 2.027439727 -0.402297691
H -3.779087078 1.458797099 -1.431698955
H -5.608950119 -2.356177315 -0.048582515
H 0.180824983 -3.718359029 1.527388148
H 5.693535999 0.172112079 -0.767176310
H 4.844043540 -2.616295036 0.479411027
H 1.978793263 3.795163905 -1.395918163
H -2.150496330 3.200668727 1.047541596

