9

O 3.799992986 -1.634096787 0.054827437
C 1.705363140 -0.876402442 -0.077591304
O -0.319538250 -2.690783334 0.207101889
C -2.776635784 -2.157751537 0.103265464
H -3.915448034 -3.838275493 0.366542183
C -3.796530271 0.166467826 -0.282457515
H -5.799261470 0.519692863 -0.356987841
C -1.756867323 1.851163069 -0.542215319
C 0.520621569 1.518883586 -0.470933148

