11

O 4.338881366 -2.745923993 0.125187458
C 2.408994631 -1.572086199 0.071285515
O 0.154133433 -2.926030105 0.061177162
C -2.105838171 -1.790903369 0.000352906
C -2.397478999 0.722012139 -0.054695912
C -0.163478941 2.246743048 -0.047139672
C 2.131561407 1.156211015 0.013411689
H -3.638710739 -3.144407272 0.001546741
H -4.266337218 1.538691752 -0.102121971
H -0.331602262 4.287680295 -0.090357122
H 3.869875512 2.228012688 0.021353187

