11

O 4.282884114 -1.937120286 0.283374013
C 2.186428716 -1.126298313 0.146085391
O 0.128419514 -2.759427598 0.016148957
C -2.277787280 -1.933701771 -0.144282990
C -2.968692902 0.513139199 -0.195407999
C -0.996757738 2.390603987 -0.068354512
C 1.197268376 1.382318692 0.077105078
H -3.574909767 -3.514809428 -0.227217835
H -4.952657779 0.991994344 -0.328647656
H 3.441603630 2.996650210 0.976049401
H 3.534201117 2.996649095 -0.534849941

