12

N 1.487613589 3.019857218 0.118435505
C 0.850108453 0.365531368 0.111911584
C 3.063130964 -0.864638236 -0.244392270
O 2.569143497 -3.330902019 -0.151447074
N -0.022901648 -3.711039571 0.262912040
C -1.055831598 -1.471433641 0.453847511
N -3.591785796 -1.188238584 1.041690305
H 0.800260501 4.079625663 -1.321569439
H 1.280496431 3.935626851 1.788732301
H 3.644737756 1.954448337 -0.238569779
H -4.488788370 0.137463535 0.012987105
H -4.523458381 -2.851445071 0.997177125

