16

C -4.422046134 0.833125163 -0.108622894
C -2.182874841 -0.971905931 -0.010183621
C 0.357920534 0.385211543 -0.061100590
C 2.584693184 -1.438904708 0.044259181
C 5.236976750 -0.474645969 0.018667187
O 5.195091216 2.002829559 -0.091504375
H -6.216014583 -0.184234710 -0.077681633
H -4.404322223 2.126130088 1.501335798
H -4.378646533 1.976789095 -1.827611961
H -2.303272599 -2.132060804 1.699947997
H -2.286442150 -2.289911612 -1.602997942
H 0.488260104 1.542090765 -1.770222396
H 0.468743579 1.706712045 1.525538484
H 2.519049843 -2.810461750 -1.513058128
H 2.497884041 -2.648514243 1.729985856
H 6.915017946 2.595393134 -0.102544080

