16

C -4.466775045 0.738813675 -0.088264610
C -2.164122994 -0.986030878 -0.023450348
C 0.321455207 0.470624386 -0.048152981
C 2.612446779 -1.268797968 0.028190613
C 5.123234399 0.000707230 -0.013171731
O 5.174553842 2.453437456 -0.123881922
H -6.222187071 -0.343730467 -0.076106187
H -4.494326420 2.001053254 1.545438396
H -4.464815285 1.914428171 -1.785753714
H -2.241209987 -2.181213979 1.664707648
H -2.218830830 -2.274867086 -1.642074266
H 0.414950617 1.661179661 -1.735451076
H 0.387262973 1.767402716 1.560352379
H 2.624109091 -2.603377076 -1.558833039
H 2.610687746 -2.477631563 1.712719201
H 7.073583240 1.345647914 -0.062061478

