12

C -3.945671520 0.088180063 0.739160780
N -1.457890673 -0.493899160 -0.217201719
C 3.435345500 -1.765312112 -1.374956187
C 4.500304172 -0.324532796 0.218671303
N 2.560468558 0.913551831 -1.415660113
C 0.145386382 1.252462155 -0.331836021
H -5.351588034 -0.322443288 -0.714764624
H -4.361065939 -1.137027517 2.346498894
H -4.165741560 2.064848103 1.332309263
H 3.097029948 -3.466973052 -2.420747386
H 5.818728238 0.230485039 1.655838898
H -0.224097311 3.205667487 0.255762620

