14

O 2.187630393 -0.632443618 2.600312979
C 0.329349406 -0.180610385 0.752212155
C -2.201231980 -0.500497668 2.049730086
C -0.252554961 0.787347209 -3.203785055
C 0.482408661 2.248364244 -0.865507680
C 0.481229283 -1.588731946 -1.803524245
H 3.830080412 -0.460858981 1.854798033
H -2.370595793 0.840887345 3.606151816
H -2.363011075 -2.409039909 2.812528808
H -3.754303887 -0.180669005 0.730701308
H 2.458217423 2.806812745 -1.183915609
H -0.570532298 3.956294955 -0.387252410
H -0.580484597 -3.319495613 -2.166779061
H 2.454685261 -1.949298645 -2.342887854

