13

O -0.430526042 0.440573564 3.119153312
C 0.705219409 -1.028715955 1.580471745
C -1.156264607 -1.401707962 -1.822930618
C -2.725894162 0.582203926 -1.385859207
C -3.591455170 2.283339390 0.002311645
C 3.155836751 -0.240316528 0.594228556
C 5.183659450 0.395061287 -0.185883685
H -2.104234927 1.732654130 1.863616194
H 0.529099504 -3.061180615 1.899056137
H -1.970011763 -3.283380754 -1.762039069
H 0.387720740 -1.158310708 -3.144987304
H -4.973089309 3.763226343 0.096779319
H 6.989940125 0.976555773 -0.853916988

