9

N -1.305741207 -1.507354348 0.378037009
C 0.518706275 0.612583031 0.184236373
C 3.013296996 -0.135401730 -0.215392760
N 5.044461014 -0.903248440 -0.477378362
C -0.574085247 2.929516650 -0.432588923
N -1.625843351 4.793723686 -0.882277223
H -2.882097903 -0.917502549 1.314888766
H -1.867278748 -2.235989033 -1.326724896
H -0.519765372 -2.937988027 1.400530890

