14

C 2.740695763 0.592525422 -1.930971136
C 0.484395595 0.558543686 -0.181947121
O 1.038667177 1.665185767 2.149545174
C -0.965327870 -1.913468814 0.232654614
C -3.234979199 -0.447184110 -0.799467856
O -1.673889392 1.704748053 -1.354327596
H 4.343206194 -0.353373041 -1.045366332
H 2.292465369 -0.341047585 -3.710706564
H 3.265157294 2.546057828 -2.351814391
H -0.332949391 -3.474644943 -0.947056694
H -1.065175481 -2.497932229 2.199110461
H -4.696246794 0.005776534 0.587049071
H -4.111563981 -1.203361023 -2.507372091
H 1.693424417 3.333363425 1.855166190

