16

C -3.302701768 0.425485953 1.038397570
C -1.045367957 1.991838043 -0.385780559
C 1.602661873 1.832569393 -0.390040417
C 2.580252497 -0.517339058 0.889112324
C 0.372059049 -2.371509457 0.470049701
C -1.691500355 -0.742351035 -0.798199018
H -3.270744439 -0.158570264 3.012770915
H -4.994999549 1.442706629 0.496315987
H -1.917622980 3.409922636 -1.569577701
H 1.303691364 0.251050720 -3.350800400
H 2.806635564 3.440404580 -0.785469539
H 2.997103895 -0.149366334 2.883085191
H 4.323093026 -1.194594055 0.030804293
H -0.305171929 -3.194460618 2.236402259
H 0.897618643 -3.929441418 -0.765813685
H -0.325449748 -0.640872137 -3.269493686

