12

C -0.979803305 -4.190782037 -0.981766201
C 0.505746231 2.280559943 0.971820591
C 0.014822974 4.939889183 0.838174341
O 0.576101755 3.615449722 3.176642787
C 0.802042626 0.012930375 0.148688111
C 1.091290797 -2.272319206 -0.727508842
H -2.775537286 -3.442524305 -0.310628645
H -1.195688338 -4.765950022 -2.953563037
H -0.526246396 -5.888966164 0.102176377
H -1.914768567 5.617823800 0.681865758
H 1.487807229 6.220824956 0.208564556
H 2.971247207 -2.860854830 -1.321094268

