12

C -3.419070914 -0.383424675 0.148392955
C -0.616836710 -0.251334009 -0.099753389
C 0.931238779 1.881631974 0.000933676
N 3.510130258 1.028475336 -0.399292629
C 3.193400613 -1.475763721 -0.575680176
N 0.817678957 -2.301494556 -0.468572484
H -4.233869191 1.482898968 0.455237027
H -3.946394359 -1.602729676 1.724726786
H -4.246568982 -1.189096615 -1.559441701
H 0.480267772 3.864807739 -0.153513565
H 2.611829651 1.679044263 1.709622639
H 4.792763554 -2.732659760 -0.756905932

