13

C -2.079154274 -1.754065010 -0.813643636
C -0.162096191 0.120452296 0.259233083
O 0.026086101 -0.151204584 2.902048876
C -1.036943634 2.861365283 -0.236975473
O -2.406019692 3.499609529 -1.910161150
C 2.235915428 -0.181387025 -1.249379199
O 4.071368713 -0.670461299 0.335877446
H -3.833130052 -1.582568699 0.251395444
H -1.370364360 -3.679335976 -0.619145068
H -2.439830445 -1.350486539 -2.796206071
H 1.761574631 -0.462257907 3.342763073
H -0.306229060 4.205881591 1.193935976
H 5.618117615 -0.884558443 -0.600141339

