12

C -2.680677684 -1.445739960 -1.333041343
C -0.951422245 0.510865745 -0.178854943
H -1.137076914 2.367904351 -1.054257342
C 0.116172860 0.476998470 2.335968187
H -0.238549936 -1.331551294 3.288945072
C 2.012826399 0.056493722 0.024350312
C 2.649271664 -2.382345052 -0.311623945
O 3.171721808 -4.475569150 -0.459819291
H 3.403325356 1.456281609 -0.524103333
H -2.283399786 -3.340614209 -0.616010276
H -4.622331063 -0.987610085 -0.806480383
H -2.579407525 -1.477406404 -3.394191554

