13

O 2.879358424 2.606324576 -0.537079761
C 1.275465942 0.585576407 -0.165874433
C 3.720167156 0.566156750 1.066334393
O 0.634465833 -0.944014405 -2.255113609
C -1.989919782 -0.618510365 -1.675996456
C -2.578260424 -1.744932040 0.823557139
C -1.422698908 0.861123326 0.673838145
H 3.891197348 1.030196064 3.057569670
H 5.219078530 -0.581242887 0.264041510
H -3.289101617 -0.300396817 -3.218326781
H -1.465679784 -3.329143118 1.491883784
H -4.556484237 -1.769763079 1.350432209
H -2.263304192 2.558520515 1.427057467

