13

C 3.696659738 1.561201622 -1.065677789
O 1.078408326 1.358340543 -0.658316048
C 0.184165376 -1.107601325 -0.964289522
C -2.603205016 -1.158889909 -0.573374805
O -3.893587191 -3.205205865 -0.718061119
N -4.135958985 0.677635266 -0.062339948
H 4.201506894 1.018688256 -3.001812960
H 4.762526689 0.372978439 0.256871871
H 4.209356363 3.529895036 -0.762977225
H 1.046369550 -2.421110535 0.393145426
H 0.574342968 -1.844159310 -2.866384623
H -5.513069762 -1.407614320 -0.200342376
H -3.597867899 2.491875581 0.154748727

