10

O 0.147089006 -2.138373794 -1.918103518
C 1.005035589 0.166126844 -1.190728582
C 1.883212333 -0.812997992 1.229156692
O 0.250617009 -0.108977784 2.825575042
C -1.230538913 1.410921662 0.314169935
O -3.355205503 0.331388515 -0.193855287
H -2.722848226 -1.235422381 -1.137191413
H 2.078451712 1.329085768 -2.521140900
H 3.365854960 -2.166556167 1.661063632
H -1.315450242 3.355769000 0.957321573

