11

C 7.023796496 0.265808669 0.353389160
C 4.760569254 0.386262363 0.296633655
C 2.164858456 0.525422248 0.229457255
C -0.099014336 0.650042260 0.168846576
C -2.836494692 0.801058873 0.086012699
C -4.166328433 -1.649337995 -0.589055601
O -3.146131836 -3.616160996 -1.013710377
H 9.031329111 0.154247610 0.402949325
H -3.446251600 2.229446121 -1.284322314
H -3.590869185 1.427205546 1.910866623
H -6.253784690 -1.467935928 -0.662082291

