11

C 5.795688943 -0.521253664 -0.094384204
C 3.553834918 -0.227318727 0.027767503
C 0.904571172 0.132145827 0.174275702
C -0.525883436 2.082943478 1.120791217
C -3.140662571 1.049928112 0.573296778
C -2.885340749 -1.408166234 -0.393605480
O -0.511909989 -1.942964302 -0.662716407
H 7.788769423 -0.768790042 -0.196226761
H -2.331671025 2.394086695 -1.001191830
H -4.890948829 1.844781389 1.262467178
H -4.232144816 -2.848757730 -0.918239089

