15

C 3.385496225 -0.139588967 0.356428576
C 0.736664093 -0.247291091 -0.098410209
C -1.368476089 -1.712444851 1.147146849
C -3.202103010 -0.317661828 -0.671582435
C -1.029086776 1.437554952 -1.572876936
H 4.212593181 1.750789416 2.658752665
H 4.277763277 -1.729080167 1.282420985
H 4.555924727 0.890902953 -0.965738035
H 2.094291755 1.194419028 1.743709103
H -1.315065304 -3.770758375 0.969871018
H -1.705098673 -1.262660912 3.145388021
H -4.801772899 0.622927789 0.219279681
H -3.906205308 -1.537957140 -2.171983366
H -1.204069066 3.380222774 -0.862984933
H -0.742712275 1.542497755 -3.616882078

