15

C -2.169544486 -2.203755899 0.740945626
C 0.230559626 -0.739833428 1.243451204
C 1.834790048 0.043944598 -1.768136421
O 4.363332287 0.020820662 -1.129868799
C -0.119168378 2.397162602 -0.020351349
N -0.246747757 1.622373814 2.562549770
H -3.816976163 -1.071219354 0.166338852
H -1.886550213 -3.708190356 -0.641698174
H -2.645620959 -3.104380699 2.539471395
H 1.072638123 -1.730778029 -2.502390376
H 1.711880314 1.348078234 -3.381994374
H 4.420144106 -0.968391778 0.405928724
H -1.874945991 2.559218901 -1.071900770
H 1.249810888 3.883078688 -0.360784622
H -2.082148432 1.684964907 3.129916984

