8

O -1.312731304 -1.020457928 1.410660596
C -1.827215175 1.277062289 1.225322211
C 0.801922874 1.717212535 -1.623237551
O 1.425352234 3.576075672 -2.513715429
C 1.037515276 -1.978429680 -0.084172351
O 2.922379551 -2.320380611 1.057247380
H -3.559479001 1.688070955 2.323840851
H 0.257771796 -3.076190502 -1.656465021

