14

C 1.788925960 3.108311726 -0.100048299
N 3.099279365 -1.997347539 -1.290453096
C 0.920910935 -1.459665126 -0.402958906
N 0.411901600 0.888637436 0.681176046
N -2.212809161 1.157127796 0.970118553
C -3.220967617 -1.218283113 0.582187996
C -1.474718136 -2.829857993 -0.284513707
H 1.682415326 4.560682396 1.358850334
H 3.746593842 2.539827023 -0.359487268
H 1.058305495 3.866344086 -1.880620215
H 3.109802493 -3.776877856 -1.994246801
H -2.673068002 1.990042463 2.629661295
H -5.201693409 -1.524560947 0.969661485
H -1.760129123 -4.752378122 -0.890268912

