14

C 2.951328851 2.933585721 -0.255923455
N 2.852999692 -1.208769778 -0.636069700
C 0.366856879 -1.175660700 -0.375451013
N -0.610519488 1.134488065 -0.199072707
N -2.975866926 0.899794927 0.833706065
C -3.622953919 -1.588344212 0.864211063
C -1.599696571 -2.985572389 0.113400405
H 3.892689665 2.488754717 1.496253436
H 4.117183743 2.792255920 -1.920706767
H 1.764202446 4.591692858 -0.220935402
H 3.526118418 -2.587348702 -1.786031844
H -4.212904664 2.306219778 0.526945387
H -5.483194269 -2.171482400 1.472422761
H -1.433682714 -5.013743648 0.121826221

