10

C -2.227863021 0.566831666 0.412045465
C -0.011986060 -0.529459724 -1.008742287
C 3.868829133 -0.889487870 1.344248893
O 1.685572983 -1.775384390 0.750619002
H -3.206009735 -0.899285986 1.478933170
H -3.563616254 1.405002908 -0.916552924
H -1.608798040 2.032122733 1.723473481
H -0.602132090 -1.987762754 -2.339463765
H 4.129998089 0.909337175 0.231660411
H 1.073003199 0.918222856 -2.008794328

