10

C -2.355287292 0.515579875 0.394102799
C 0.163401424 -0.432720562 -0.535053502
C 3.430200078 0.188935158 0.768997779
O 1.583865372 -1.531024472 1.469296360
H -3.447181553 -1.068078516 1.132943762
H -3.410010622 1.401424012 -1.139247567
H -2.075636795 1.884577490 1.905967036
H 0.117762346 -1.694814084 -2.162357461
H 4.422306425 -0.714125556 -0.878612987
H 1.285432301 1.341300202 -1.113703610

