13

N -2.348087549 -0.887139261 -2.322808323
C -0.463813171 -0.334260672 -0.765278212
O -0.877130214 2.426506629 1.716151681
C 0.371248791 -2.035773381 1.372553230
O 2.175720621 -0.482392485 2.549808953
C 1.558149128 1.921222228 1.421382487
N 1.598092477 1.165228769 -1.361532744
H -2.844082264 0.358915286 -3.666705935
H -3.701530696 -2.080841592 -1.733578187
H 1.268421081 -3.745368242 0.633252081
H -1.211765750 -2.531393855 2.602505837
H 2.987776093 3.291892062 2.001141939
H 1.071397744 2.692069501 -2.391327298

