16

C -3.969830364 -0.071445348 1.147268604
C -1.031666158 2.313501233 -1.676769977
C 1.288575672 1.388275713 -1.357077034
C 2.258982256 -0.147476400 0.812525523
C 2.732160664 -2.906343108 0.092379299
C -3.218721677 2.036388827 0.011152238
H -2.991276131 -1.851104545 0.883012761
H -5.626309540 -0.091256424 2.349472472
H -1.363678604 3.478567315 -3.335679360
H 4.071372265 -3.051416665 -1.471767914
H 2.666818413 1.804187615 -2.824510692
H 0.944514483 -0.049037429 2.398719963
H 4.040428718 0.684636191 1.456107829
H 0.984336436 -3.825442778 -0.506352191
H 3.503635232 -3.964117061 1.686134572
H -4.345651688 3.735845628 0.271543270

