16

C 0.409309142 0.026092904 -2.496089122
C -2.002654098 -0.802627005 -1.153322039
C -1.610264222 -2.985752386 0.683900124
C 1.524785711 3.039876296 3.695554551
C 1.918505576 2.228623939 1.408150738
C 2.310954978 1.394922390 -0.870873141
H -3.386610823 -1.356670176 -2.584043723
H 1.337439889 -1.623845174 -3.334758553
H -0.067389126 1.264690762 -4.084398790
H -2.816215947 0.815287017 -0.155415309
H -0.270540014 -2.491835840 2.170633724
H -3.383968608 -3.524457538 1.588095902
H -0.874997223 -4.649666915 -0.294760539
H 0.767260063 4.911604310 4.041462096
H 1.949509311 1.867714009 5.321898377
H 4.155300728 1.749344361 -1.704192152

