11

C -2.778790242 -0.116271050 0.002529890
C 0.059660732 -0.253022990 0.039687631
C 1.496110459 2.012971719 -0.249162506
N 3.930413474 1.393553378 -0.165200160
N 4.965270718 -0.498540649 0.080620422
N 1.351765279 -2.291096565 0.305957355
H -3.443827479 1.826986386 -0.133882561
H -3.512936879 -1.168603914 -1.611046550
H -3.554305460 -0.952939903 1.718840497
H 0.872068601 3.926839983 -0.497694826
H 0.369441212 -3.917529189 0.512119276

