14

C -2.580104721 -0.104926287 1.974755315
C -0.765719822 -0.951300244 -0.043221778
C -1.077012120 -3.362803052 -1.287818288
O 0.314297548 -4.237666426 -2.893350542
C 3.158186247 1.312955822 -2.198379174
C 1.193526227 0.473060432 -0.864873866
N 2.292761394 2.902801327 0.032404854
H -4.539631395 -0.241441879 1.335069926
H -2.255340924 1.864014587 2.499959792
H -2.420551648 -1.230923491 3.700242489
H -2.768308555 -4.445481573 -0.667242415
H 5.093900293 0.764997153 -2.484788881
H 3.147091250 2.834460043 1.746634022
H 1.421894716 4.559481701 -0.346612848

