13

C 3.622071417 -0.632182326 2.511541243
C 1.814226275 -0.192378844 0.336967024
H 2.439087972 1.296451332 -0.952543419
C 0.212737374 -2.274620704 -0.729978336
H 0.192669427 -3.980615995 -1.837533004
C -0.974992005 -0.616875677 0.600808110
C -3.305596677 0.392373548 1.742945465
H -4.932342845 -0.797765571 1.317237450
H -3.674092742 2.300226701 1.045052260
H -3.098472811 0.526326993 3.792523712
H 5.479974723 -1.227717155 1.831412861
H 3.890570318 1.087664960 3.625198441
H 2.908548173 -2.103846551 3.772032920

