13

N 3.139843470 -2.543312433 -1.839644244
C 1.887739191 -0.887369184 -0.694952678
O 2.722756990 0.976839364 0.861679132
C 0.517250411 2.535896732 0.823992003
C -0.741618671 1.136477474 -1.325727045
C -3.031287151 -0.224897950 -0.621322939
N -0.937767972 -1.900466780 0.181971574
H 5.017705742 -2.185145725 -1.751888632
H -0.403377707 2.512071594 2.678937567
H 0.995605667 4.465765742 0.275470744
H -4.200964108 -1.003757889 -2.117182084
H -4.108113228 0.469055365 0.984701985
H -0.869798870 -3.313575309 -1.124600413

