12

O -3.620976849 1.169650785 0.390974187
C -2.348585945 -1.143449581 0.665591550
C 0.389265818 -0.974357095 -0.105417673
O 0.865089389 0.493837234 -2.343912804
C 1.840571438 1.359877193 -0.011961324
O 4.412966926 1.452818138 0.246524203
H -3.342453102 1.741875634 -1.311984786
H -3.265501035 -2.640826931 -0.442143757
H -2.467346936 -1.676764951 2.656129045
H 1.424013156 -2.754093657 -0.034066565
H 5.144142272 -0.039595620 -0.485375531
H 0.995953206 3.079769549 0.713815395

