11

O 2.336341068 0.196529514 3.489892501
C 1.100282416 0.088284395 1.607163824
C 1.559025565 -1.300444153 -0.902828146
C -0.489606250 0.163849913 -2.359393572
N -2.687099956 -0.134717971 -0.788387673
C -1.179504780 1.587626362 0.794754236
H 3.499939324 -1.088109839 -1.552221454
H 1.064753902 -3.304398931 -0.842169260
H -0.225447029 2.679001194 -0.957268056
H -2.753183470 -1.851402630 0.086679224
H -2.209045053 2.981392504 1.895249945

