13

O -1.649554671 0.914839131 2.963433662
C -2.776549726 -0.248458300 1.363843973
C -1.741989944 -0.821818289 -1.224681953
C 1.079191296 -1.259231759 -1.325284565
O 2.397550355 -0.018355250 -3.315113243
C 2.889002698 0.767386107 -0.827388105
O 2.104032972 3.146447685 -0.176971472
H 0.950731928 2.963145970 1.230610439
H -4.729505898 -0.895226533 1.740021133
H -2.763009801 -2.421303324 -2.034266854
H -2.198304266 0.824528043 -2.395388716
H 1.671010035 -3.200828862 -0.997196835
H 4.787076480 0.303165304 -0.184300983

