13

C 3.958952647 0.512532918 3.614434504
C 1.357151489 0.342566906 2.374558171
C 1.504628664 0.111294154 -0.440628310
O 2.614837226 -2.103010423 -1.134167794
H 2.722070982 -2.181735808 -2.943553422
C 0.687422214 1.835898259 -2.075493025
H -0.173997610 3.560783970 -1.406926743
H 0.858879503 1.576730787 -4.100922895
H 0.348811468 -1.308809139 3.103177246
H 0.229222721 2.004027003 2.838136902
H 5.093365898 -1.151555542 3.179763556
H 4.979343074 2.175733736 2.944875701
H 3.779444785 0.651003223 5.663874933

