24

C     3.40707  -1.13085  -0.31822
O     2.30990  -0.61539   0.44666
C     1.46114   0.19677  -0.18677
O     1.63084   0.59653  -1.32250
C     0.21499   0.43876   0.63549
N    -0.45403   1.64081   0.19259
O    -1.72293   1.49715   0.78737
C    -2.21057  -0.07658   0.69495
C    -3.24381  -0.09777  -0.41188
C    -0.90179  -0.82718   0.51816
C    -0.74520  -1.63997  -0.78408
H     4.06486  -0.31949  -0.64705
H     3.02761  -1.67880  -1.19504
H     3.93898  -1.81173   0.35316
H     0.45390   0.54283   1.73871
H    -0.48131   1.68594  -0.83466
H    -2.66822  -0.21584   1.71841
H    -4.05112   0.60623  -0.15332
H    -2.76112   0.24699  -1.33651
H    -3.72341  -1.07520  -0.64987
H    -0.69422  -1.51560   1.41450
H    -1.51002  -2.41905  -1.02457
H    -0.73589  -0.94087  -1.63082
H     0.23035  -2.15963  -0.76657
24

C     3.40626  -1.13098  -0.31810
O     2.30935  -0.61432   0.44673
C     1.46345   0.20103  -0.18663
O     1.63124   0.59668  -1.32435
C     0.22751   0.45681   0.63802
N    -0.45553   1.63514   0.19261
O    -1.71218   1.51818   0.78645
C    -2.21742  -0.09951   0.69600
C    -3.24494  -0.09841  -0.41217
C    -0.91992  -0.84619   0.51928
C    -0.74544  -1.64205  -0.78521
H     4.06471  -0.31962  -0.64709
H     3.02734  -1.67888  -1.19496
H     3.93865  -1.81176   0.35328
H     0.45129   0.54117   1.73905
H    -0.47729   1.69141  -0.83368
H    -2.66773  -0.21514   1.71889
H    -4.04998   0.60737  -0.15266
H    -2.76004   0.24769  -1.33553
H    -3.72600  -1.07341  -0.65296
H    -0.69180  -1.51440   1.41479
H    -1.50822  -2.42021  -1.02866
H    -0.73557  -0.93958  -1.62952
H     0.23097  -2.15875  -0.76620
24

C     3.40544  -1.13111  -0.31798
O     2.30880  -0.61326   0.44680
C     1.46576   0.20528  -0.18648
O     1.63163   0.59682  -1.32619
C     0.24004   0.47486   0.64055
N    -0.45704   1.62948   0.19264
O    -1.70143   1.53921   0.78552
C    -2.22427  -0.12244   0.69706
C    -3.24606  -0.09904  -0.41247
C    -0.93804  -0.86520   0.52040
C    -0.74568  -1.64413  -0.78633
H     4.06456  -0.31976  -0.64713
H     3.02706  -1.67896  -1.19488
H     3.93831  -1.81179   0.35340
H     0.44868   0.53951   1.73940
H    -0.47328   1.69688  -0.83269
H    -2.66723  -0.21444   1.71938
H    -4.04884   0.60850  -0.15199
H    -2.75896   0.24839  -1.33454
H    -3.72858  -1.07163  -0.65604
H    -0.68938  -1.51320   1.41508
H    -1.50642  -2.42138  -1.03275
H    -0.73525  -0.93829  -1.62822
H     0.23159  -2.15787  -0.76582
24

C     3.40463  -1.13124  -0.31787
O     2.30825  -0.61220   0.44688
C     1.46808   0.20954  -0.18634
O     1.63202   0.59697  -1.32804
C     0.25256   0.49291   0.64308
N    -0.45854   1.62382   0.19266
O    -1.69068   1.56025   0.78460
C    -2.23113  -0.14536   0.69812
C    -3.24718  -0.09967  -0.41277
C    -0.95617  -0.88421   0.52151
C    -0.74592  -1.64621  -0.78746
H     4.06442  -0.31989  -0.64717
H     3.02678  -1.67905  -1.19480
H     3.93798  -1.81182   0.35352
H     0.44607   0.53786   1.73974
H    -0.46926   1.70235  -0.83171
H    -2.66674  -0.21374   1.71987
H    -4.04770   0.60964  -0.15133
H    -2.75788   0.24909  -1.33356
H    -3.73117  -1.06985  -0.65913
H    -0.68696  -1.51201   1.41537
H    -1.50462  -2.42255  -1.03684
H    -0.73494  -0.93700  -1.62693
H     0.23221  -2.15699  -0.76544
24

C     3.40382  -1.13137  -0.31775
O     2.30770  -0.61114   0.44695
C     1.47039   0.21379  -0.18619
O     1.63242   0.59711  -1.32988
C     0.26508   0.51096   0.64562
N    -0.46004   1.61816   0.19269
O    -1.67993   1.58128   0.78368
C    -2.23798  -0.16829   0.69918
C    -3.24830  -0.10031  -0.41307
C    -0.97430  -0.90322   0.52263
C    -0.74616  -1.64829  -0.78858
H     4.06427  -0.32002  -0.64721
H     3.02651  -1.67913  -1.19472
H     3.93764  -1.81185   0.35364
H     0.44347   0.53620   1.74008
H    -0.46525   1.70782  -0.83072
H    -2.66625  -0.21304   1.72035
H    -4.04655   0.61078  -0.15067
H    -2.75679   0.24979  -1.33258
H    -3.73375  -1.06807  -0.66221
H    -0.68454  -1.51081   1.41565
H    -1.50282  -2.42372  -1.04093
H    -0.73462  -0.93570  -1.62563
H     0.23283  -2.15610  -0.76507
24

C     3.40301  -1.13150  -0.31763
O     2.30714  -0.61007   0.44702
C     1.47270   0.21804  -0.18605
O     1.63281   0.59726  -1.33172
C     0.27761   0.52901   0.64815
N    -0.46155   1.61250   0.19271
O    -1.66919   1.60231   0.78276
C    -2.24483  -0.19121   0.70024
C    -3.24943  -0.10094  -0.41336
C    -0.99242  -0.92223   0.52375
C    -0.74641  -1.65037  -0.78970
H     4.06412  -0.32015  -0.64725
H     3.02623  -1.67922  -1.19464
H     3.93731  -1.81188   0.35375
H     0.44086   0.53455   1.74042
H    -0.46124   1.71329  -0.82974
H    -2.66576  -0.21234   1.72084
H    -4.04541   0.61191  -0.15000
H    -2.75571   0.25049  -1.33160
H    -3.73634  -1.06629  -0.66530
H    -0.68212  -1.50962   1.41594
H    -1.50102  -2.42489  -1.04502
H    -0.73430  -0.93441  -1.62433
H     0.23345  -2.15522  -0.76469
24

C     3.40219  -1.13163  -0.31752
O     2.30659  -0.60901   0.44709
C     1.47501   0.22230  -0.18590
O     1.63320   0.59740  -1.33357
C     0.29013   0.54706   0.65068
N    -0.46305   1.60684   0.19274
O    -1.65844   1.62334   0.78183
C    -2.25168  -0.21414   0.70129
C    -3.25055  -0.10157  -0.41366
C    -1.01055  -0.94124   0.52487
C    -0.74665  -1.65246  -0.79083
H     4.06397  -0.32029  -0.64729
H     3.02596  -1.67930  -1.19456
H     3.93697  -1.81191   0.35387
H     0.43825   0.53289   1.74076
H    -0.45722   1.71876  -0.82876
H    -2.66527  -0.21164   1.72133
H    -4.04427   0.61305  -0.14934
H    -2.75463   0.25119  -1.33062
H    -3.73892  -1.06451  -0.66838
H    -0.67970  -1.50842   1.41623
H    -1.49922  -2.42606  -1.04911
H    -0.73399  -0.93312  -1.62303
H     0.23408  -2.15434  -0.76432
24

C     3.40138  -1.13176  -0.31740
O     2.30604  -0.60795   0.44717
C     1.47733   0.22655  -0.18576
O     1.63360   0.59755  -1.33541
C     0.30265   0.56511   0.65321
N    -0.46455   1.60118   0.19276
O    -1.64769   1.64438   0.78091
C    -2.25854  -0.23707   0.70235
C    -3.25167  -0.10221  -0.41396
C    -1.02867  -0.96025   0.52598
C    -0.74689  -1.65454  -0.79195
H     4.06383  -0.32042  -0.64733
H     3.02568  -1.67938  -1.19448
H     3.93664  -1.81194   0.35399
H     0.43564   0.53124   1.74111
H    -0.45321   1.72423  -0.82777
H    -2.66478  -0.21094   1.72181
H    -4.04313   0.61419  -0.14868
H    -2.75355   0.25189  -1.32964
H    -3.74151  -1.06273  -0.67146
H    -0.67728  -1.50722   1.41652
H    -1.49742  -2.42722  -1.05319
H    -0.73367  -0.93183  -1.62174
H     0.23470  -2.15346  -0.76394
24

C     3.40057  -1.13189  -0.31728
O     2.30549  -0.60689   0.44724
C     1.47964   0.23081  -0.18561
O     1.63399   0.59769  -1.33726
C     0.31518   0.58316   0.65574
N    -0.46605   1.59552   0.19279
O    -1.63694   1.66541   0.77999
C    -2.26539  -0.25999   0.70341
C    -3.25280  -0.10284  -0.41426
C    -1.04680  -0.97926   0.52710
C    -0.74713  -1.65662  -0.79308
H     4.06368  -0.32055  -0.64737
H     3.02541  -1.67947  -1.19440
H     3.93631  -1.81198   0.35411
H     0.43303   0.52958   1.74145
H    -0.44919   1.72970  -0.82679
H    -2.66429  -0.21024   1.72230
H    -4.04199   0.61532  -0.14801
H    -2.75247   0.25259  -1.32866
H    -3.74409  -1.06095  -0.67455
H    -0.67485  -1.50603   1.41681
H    -1.49562  -2.42839  -1.05728
H    -0.73335  -0.93054  -1.62044
H     0.23532  -2.15258  -0.76357
24

C     3.39975  -1.13202  -0.31717
O     2.30494  -0.60583   0.44731
C     1.48195   0.23506  -0.18546
O     1.63438   0.59784  -1.33910
C     0.32770   0.60121   0.65827
N    -0.46756   1.58986   0.19281
O    -1.62619   1.68644   0.77907
C    -2.27224  -0.28292   0.70447
C    -3.25392  -0.10348  -0.41455
C    -1.06492  -0.99828   0.52822
C    -0.74737  -1.65870  -0.79420
H     4.06353  -0.32069  -0.64742
H     3.02513  -1.67955  -1.19432
H     3.93597  -1.81201   0.35423
H     0.43042   0.52792   1.74179
H    -0.44518   1.73517  -0.82581
H    -2.66380  -0.20954   1.72279
H    -4.04085   0.61646  -0.14735
H    -2.75138   0.25330  -1.32768
H    -3.74667  -1.05917  -0.67763
H    -0.67243  -1.50483   1.41710
H    -1.49382  -2.42956  -1.06137
H    -0.73304  -0.92925  -1.61914
H     0.23594  -2.15169  -0.76319
24

C     3.39894  -1.13215  -0.31705
O     2.30439  -0.60476   0.44738
C     1.48426   0.23932  -0.18532
O     1.63478   0.59799  -1.34095
C     0.34022   0.61926   0.66080
N    -0.46906   1.58420   0.19283
O    -1.61544   1.70748   0.77814
C    -2.27910  -0.30584   0.70552
C    -3.25504  -0.10411  -0.41485
C    -1.08305  -1.01729   0.52933
C    -0.74761  -1.66078  -0.79533
H     4.06338  -0.32082  -0.64746
H     3.02486  -1.67963  -1.19424
H     3.93564  -1.81204   0.35434
H     0.42781   0.52627   1.74213
H    -0.44117   1.74065  -0.82482
H    -2.66331  -0.20884   1.72327
H    -4.03971   0.61760  -0.14669
H    -2.75030   0.25400  -1.32670
H    -3.74926  -1.05739  -0.68072
H    -0.67001  -1.50364   1.41739
H    -1.49202  -2.43073  -1.06546
H    -0.73272  -0.92796  -1.61784
H     0.23656  -2.15081  -0.76281
24

C     3.39813  -1.13228  -0.31693
O     2.30383  -0.60370   0.44746
C     1.48658   0.24357  -0.18517
O     1.63517   0.59813  -1.34279
C     0.35275   0.63731   0.66333
N    -0.47056   1.57854   0.19286
O    -1.60470   1.72851   0.77722
C    -2.28595  -0.32877   0.70658
C    -3.25616  -0.10474  -0.41515
C    -1.10118  -1.03630   0.53045
C    -0.74785  -1.66287  -0.79645
H     4.06324  -0.32095  -0.64750
H     3.02458  -1.67972  -1.19416
H     3.93530  -1.81207   0.35446
H     0.42521   0.52461   1.74248
H    -0.43715   1.74612  -0.82384
H    -2.66282  -0.20814   1.72376
H    -4.03857   0.61873  -0.14603
H    -2.74922   0.25470  -1.32572
H    -3.75184  -1.05561  -0.68380
H    -0.66759  -1.50244   1.41767
H    -1.49022  -2.43190  -1.06955
H    -0.73241  -0.92666  -1.61655
H     0.23718  -2.14993  -0.76244
24

C     3.39732  -1.13241  -0.31682
O     2.30328  -0.60264   0.44753
C     1.48889   0.24783  -0.18503
O     1.63556   0.59828  -1.34463
C     0.36527   0.65536   0.66586
N    -0.47207   1.57288   0.19288
O    -1.59395   1.74954   0.77630
C    -2.29280  -0.35170   0.70764
C    -3.25729  -0.10538  -0.41544
C    -1.11930  -1.05531   0.53157
C    -0.74809  -1.66495  -0.79757
H     4.06309  -0.32109  -0.64754
H     3.02430  -1.67980  -1.19408
H     3.93497  -1.81210   0.35458
H     0.42260   0.52296   1.74282
H    -0.43314   1.75159  -0.82285
H    -2.66233  -0.20744   1.72425
H    -4.03742   0.61987  -0.14536
H    -2.74814   0.25540  -1.32474
H    -3.75443  -1.05383  -0.68689
H    -0.66517  -1.50124   1.41796
H    -1.48842  -2.43307  -1.07364
H    -0.73209  -0.92537  -1.61525
H     0.23780  -2.14905  -0.76206
24

C     3.39650  -1.13254  -0.31670
O     2.30273  -0.60158   0.44760
C     1.49120   0.25208  -0.18488
O     1.63596   0.59842  -1.34648
C     0.37780   0.67341   0.66839
N    -0.47357   1.56722   0.19291
O    -1.58320   1.77058   0.77538
C    -2.29966  -0.37462   0.70870
C    -3.25841  -0.10601  -0.41574
C    -1.13743  -1.07432   0.53269
C    -0.74833  -1.66703  -0.79870
H     4.06294  -0.32122  -0.64758
H     3.02403  -1.67989  -1.19400
H     3.93463  -1.81213   0.35470
H     0.41999   0.52130   1.74316
H    -0.42912   1.75706  -0.82187
H    -2.66184  -0.20674   1.72473
H    -4.03628   0.62101  -0.14470
H    -2.74705   0.25610  -1.32375
H    -3.75701  -1.05205  -0.68997
H    -0.66275  -1.50005   1.41825
H    -1.48662  -2.43424  -1.07773
H    -0.73177  -0.92408  -1.61395
H     0.23842  -2.14816  -0.76169
24

C     3.39569  -1.13267  -0.31658
O     2.30218  -0.60051   0.44767
C     1.49351   0.25633  -0.18474
O     1.63635   0.59857  -1.34832
C     0.39032   0.69147   0.67092
N    -0.47507   1.56156   0.19293
O    -1.57245   1.79161   0.77445
C    -2.30651  -0.39755   0.70975
C    -3.25953  -0.10664  -0.41604
C    -1.15555  -1.09333   0.53380
C    -0.74857  -1.66911  -0.79982
H     4.06279  -0.32135  -0.64762
H     3.02375  -1.67997  -1.19391
H     3.93430  -1.81216   0.35481
H     0.41738   0.51965   1.74350
H    -0.42511   1.76253  -0.82089
H    -2.66135  -0.20604   1.72522
H    -4.03514   0.62214  -0.14404
H    -2.74597   0.25680  -1.32277
H    -3.75960  -1.05026  -0.69306
H    -0.66033  -1.49885   1.41854
H    -1.48482  -2.43540  -1.08182
H    -0.73146  -0.92279  -1.61265
H     0.23905  -2.14728  -0.76131
24

C     3.39488  -1.13280  -0.31647
O     2.30163  -0.59945   0.44775
C     1.49583   0.26059  -0.18459
O     1.63674   0.59871  -1.35017
C     0.40284   0.70952   0.67345
N    -0.47658   1.55590   0.19296
O    -1.56170   1.81264   0.77353
C    -2.31336  -0.42048   0.71081
C    -3.26066  -0.10728  -0.41634
C    -1.17368  -1.11234   0.53492
C    -0.74882  -1.67119  -0.80095
H     4.06265  -0.32149  -0.64766
H     3.02348  -1.68005  -1.19383
H     3.93396  -1.81219   0.35493
H     0.41477   0.51799   1.74385
H    -0.42110   1.76800  -0.81990
H    -2.66085  -0.20534   1.72571
H    -4.03400   0.62328  -0.14337
H    -2.74489   0.25750  -1.32179
H    -3.76218  -1.04848  -0.69614
H    -0.65791  -1.49766   1.41883
H    -1.48302  -2.43657  -1.08591
H    -0.73114  -0.92150  -1.61135
H     0.23967  -2.14640  -0.76094
24

C     3.39406  -1.13293  -0.31635
O     2.30108  -0.59839   0.44782
C     1.49814   0.26484  -0.18445
O     1.63714   0.59886  -1.35201
C     0.41537   0.72757   0.67598
N    -0.47808   1.55024   0.19298
O    -1.55095   1.83367   0.77261
C    -2.32021  -0.44340   0.71187
C    -3.26178  -0.10791  -0.41663
C    -1.19181  -1.13135   0.53604
C    -0.74906  -1.67327  -0.80207
H     4.06250  -0.32162  -0.64770
H     3.02320  -1.68014  -1.19375
H     3.93363  -1.81222   0.35505
H     0.41216   0.51633   1.74419
H    -0.41708   1.77347  -0.81892
H    -2.66036  -0.20464   1.72619
H    -4.03286   0.62442  -0.14271
H    -2.74381   0.25820  -1.32081
H    -3.76477  -1.04670  -0.69923
H    -0.65549  -1.49646   1.41912
H    -1.48122  -2.43774  -1.09000
H    -0.73082  -0.92021  -1.61006
H     0.24029  -2.14552  -0.76056
24

C     3.39325  -1.13306  -0.31623
O     2.30053  -0.59733   0.44789
C     1.50045   0.26910  -0.18430
O     1.63753   0.59900  -1.35386
C     0.42789   0.74562   0.67852
N    -0.47958   1.54457   0.19301
O    -1.54021   1.85471   0.77168
C    -2.32707  -0.46633   0.71293
C    -3.26290  -0.10854  -0.41693
C    -1.20993  -1.15037   0.53715
C    -0.74930  -1.67536  -0.80319
H     4.06235  -0.32175  -0.64774
H     3.02293  -1.68022  -1.19367
H     3.93329  -1.81225   0.35517
H     0.40955   0.51468   1.74453
H    -0.41307   1.77894  -0.81794
H    -2.65987  -0.20394   1.72668
H    -4.03172   0.62555  -0.14205
H    -2.74272   0.25891  -1.31983
H    -3.76735  -1.04492  -0.70231
H    -0.65307  -1.49526   1.41941
H    -1.47942  -2.43891  -1.09409
H    -0.73051  -0.91892  -1.60876
H     0.24091  -2.14464  -0.76018
24

C     3.39244  -1.13319  -0.31611
O     2.29997  -0.59627   0.44796
C     1.50277   0.27335  -0.18416
O     1.63792   0.59915  -1.35570
C     0.44041   0.76367   0.68105
N    -0.48109   1.53891   0.19303
O    -1.52946   1.87574   0.77076
C    -2.33392  -0.48925   0.71398
C    -3.26403  -0.10918  -0.41723
C    -1.22806  -1.16938   0.53827
C    -0.74954  -1.67744  -0.80432
H     4.06220  -0.32188  -0.64778
H     3.02265  -1.68031  -1.19359
H     3.93296  -1.81228   0.35529
H     0.40695   0.51302   1.74487
H    -0.40905   1.78441  -0.81695
H    -2.65938  -0.20324   1.72716
H    -4.03058   0.62669  -0.14138
H    -2.74164   0.25961  -1.31885
H    -3.76993  -1.04314  -0.70539
H    -0.65065  -1.49407   1.41969
H    -1.47762  -2.44008  -1.09818
H    -0.73019  -0.91762  -1.60746
H     0.24153  -2.14375  -0.75981
24

C     3.39163  -1.13333  -0.31600
O     2.29942  -0.59520   0.44804
C     1.50508   0.27761  -0.18401
O     1.63832   0.59929  -1.35755
C     0.45294   0.78172   0.68358
N    -0.48259   1.53325   0.19306
O    -1.51871   1.89677   0.76984
C    -2.34077  -0.51218   0.71504
C    -3.26515  -0.10981  -0.41753
C    -1.24618  -1.18839   0.53939
C    -0.74978  -1.67952  -0.80544
H     4.06205  -0.32202  -0.64783
H     3.02238  -1.68039  -1.19351
H     3.93262  -1.81231   0.35540
H     0.40434   0.51137   1.74522
H    -0.40504   1.78988  -0.81597
H    -2.65889  -0.20254   1.72765
H    -4.02943   0.62782  -0.14072
H    -2.74056   0.26031  -1.31787
H    -3.77252  -1.04136  -0.70848
H    -0.64823  -1.49287   1.41998
H    -1.47582  -2.44125  -1.10226
H    -0.72987  -0.91633  -1.60616
H     0.24215  -2.14287  -0.75943
24

C     3.39081  -1.13346  -0.31588
O     2.29887  -0.59414   0.44811
C     1.50739   0.28186  -0.18387
O     1.63871   0.59944  -1.35939
C     0.46546   0.79977   0.68611
N    -0.48409   1.52759   0.19308
O    -1.50796   1.91781   0.76892
C    -2.34763  -0.53511   0.71610
C    -3.26627  -0.11045  -0.41782
C    -1.26431  -1.20740   0.54050
C    -0.75002  -1.68160  -0.80657
H     4.06191  -0.32215  -0.64787
H     3.02210  -1.68047  -1.19343
H     3.93229  -1.81234   0.35552
H     0.40173   0.50971   1.74556
H    -0.40103   1.79535  -0.81498
H    -2.65840  -0.20184   1.72814
H    -4.02829   0.62896  -0.14006
H    -2.73948   0.26101  -1.31689
H    -3.77510  -1.03958  -0.71156
H    -0.64581  -1.49168   1.42027
H    -1.47402  -2.44241  -1.10635
H    -0.72956  -0.91504  -1.60487
H     0.24277  -2.14199  -0.75906
24

C     3.39163  -1.13333  -0.31600
O     2.29942  -0.59520   0.44804
C     1.50508   0.27761  -0.18401
O     1.63832   0.59929  -1.35755
C     0.45294   0.78172   0.68358
N    -0.48259   1.53325   0.19306
O    -1.51871   1.89677   0.76984
C    -2.34077  -0.51218   0.71504
C    -3.26515  -0.10981  -0.41753
C    -1.24618  -1.18839   0.53939
C    -0.74978  -1.67952  -0.80544
H     4.06205  -0.32202  -0.64783
H     3.02238  -1.68039  -1.19351
H     3.93262  -1.81231   0.35540
H     0.40434   0.51137   1.74522
H    -0.40504   1.78988  -0.81597
H    -2.65889  -0.20254   1.72765
H    -4.02943   0.62782  -0.14072
H    -2.74056   0.26031  -1.31787
H    -3.77252  -1.04136  -0.70848
H    -0.64823  -1.49287   1.41998
H    -1.47582  -2.44125  -1.10226
H    -0.72987  -0.91633  -1.60616
H     0.24215  -2.14287  -0.75943
24

C     3.39244  -1.13319  -0.31611
O     2.29997  -0.59627   0.44796
C     1.50277   0.27335  -0.18416
O     1.63792   0.59915  -1.35570
C     0.44041   0.76367   0.68105
N    -0.48109   1.53891   0.19303
O    -1.52946   1.87574   0.77076
C    -2.33392  -0.48925   0.71398
C    -3.26403  -0.10918  -0.41723
C    -1.22806  -1.16938   0.53827
C    -0.74954  -1.67744  -0.80432
H     4.06220  -0.32188  -0.64778
H     3.02265  -1.68031  -1.19359
H     3.93296  -1.81228   0.35529
H     0.40695   0.51302   1.74487
H    -0.40905   1.78441  -0.81695
H    -2.65938  -0.20324   1.72716
H    -4.03058   0.62669  -0.14138
H    -2.74164   0.25961  -1.31885
H    -3.76993  -1.04314  -0.70539
H    -0.65065  -1.49407   1.41969
H    -1.47762  -2.44008  -1.09818
H    -0.73019  -0.91762  -1.60746
H     0.24153  -2.14375  -0.75981
24

C     3.39325  -1.13306  -0.31623
O     2.30053  -0.59733   0.44789
C     1.50045   0.26910  -0.18430
O     1.63753   0.59900  -1.35386
C     0.42789   0.74562   0.67852
N    -0.47958   1.54457   0.19301
O    -1.54021   1.85471   0.77168
C    -2.32707  -0.46633   0.71293
C    -3.26290  -0.10854  -0.41693
C    -1.20993  -1.15037   0.53715
C    -0.74930  -1.67536  -0.80319
H     4.06235  -0.32175  -0.64774
H     3.02293  -1.68022  -1.19367
H     3.93329  -1.81225   0.35517
H     0.40955   0.51468   1.74453
H    -0.41307   1.77894  -0.81794
H    -2.65987  -0.20394   1.72668
H    -4.03172   0.62555  -0.14205
H    -2.74272   0.25891  -1.31983
H    -3.76735  -1.04492  -0.70231
H    -0.65307  -1.49526   1.41941
H    -1.47942  -2.43891  -1.09409
H    -0.73051  -0.91892  -1.60876
H     0.24091  -2.14464  -0.76018
24

C     3.39406  -1.13293  -0.31635
O     2.30108  -0.59839   0.44782
C     1.49814   0.26484  -0.18445
O     1.63714   0.59886  -1.35201
C     0.41537   0.72757   0.67598
N    -0.47808   1.55024   0.19298
O    -1.55095   1.83367   0.77261
C    -2.32021  -0.44340   0.71187
C    -3.26178  -0.10791  -0.41663
C    -1.19181  -1.13135   0.53604
C    -0.74906  -1.67327  -0.80207
H     4.06250  -0.32162  -0.64770
H     3.02320  -1.68014  -1.19375
H     3.93363  -1.81222   0.35505
H     0.41216   0.51633   1.74419
H    -0.41708   1.77347  -0.81892
H    -2.66036  -0.20464   1.72619
H    -4.03286   0.62442  -0.14271
H    -2.74381   0.25820  -1.32081
H    -3.76477  -1.04670  -0.69923
H    -0.65549  -1.49646   1.41912
H    -1.48122  -2.43774  -1.09000
H    -0.73082  -0.92021  -1.61006
H     0.24029  -2.14552  -0.76056
24

C     3.39488  -1.13280  -0.31647
O     2.30163  -0.59945   0.44775
C     1.49583   0.26059  -0.18459
O     1.63674   0.59871  -1.35017
C     0.40284   0.70952   0.67345
N    -0.47658   1.55590   0.19296
O    -1.56170   1.81264   0.77353
C    -2.31336  -0.42048   0.71081
C    -3.26066  -0.10728  -0.41634
C    -1.17368  -1.11234   0.53492
C    -0.74882  -1.67119  -0.80095
H     4.06265  -0.32149  -0.64766
H     3.02348  -1.68005  -1.19383
H     3.93396  -1.81219   0.35493
H     0.41477   0.51799   1.74385
H    -0.42110   1.76800  -0.81990
H    -2.66085  -0.20534   1.72571
H    -4.03400   0.62328  -0.14337
H    -2.74489   0.25750  -1.32179
H    -3.76218  -1.04848  -0.69614
H    -0.65791  -1.49766   1.41883
H    -1.48302  -2.43657  -1.08591
H    -0.73114  -0.92150  -1.61135
H     0.23967  -2.14640  -0.76094
24

C     3.39569  -1.13267  -0.31658
O     2.30218  -0.60051   0.44767
C     1.49351   0.25633  -0.18474
O     1.63635   0.59857  -1.34832
C     0.39032   0.69147   0.67092
N    -0.47507   1.56156   0.19293
O    -1.57245   1.79161   0.77445
C    -2.30651  -0.39755   0.70975
C    -3.25953  -0.10664  -0.41604
C    -1.15555  -1.09333   0.53380
C    -0.74857  -1.66911  -0.79982
H     4.06279  -0.32135  -0.64762
H     3.02375  -1.67997  -1.19391
H     3.93430  -1.81216   0.35481
H     0.41738   0.51965   1.74350
H    -0.42511   1.76253  -0.82089
H    -2.66135  -0.20604   1.72522
H    -4.03514   0.62214  -0.14404
H    -2.74597   0.25680  -1.32277
H    -3.75960  -1.05026  -0.69306
H    -0.66033  -1.49885   1.41854
H    -1.48482  -2.43540  -1.08182
H    -0.73146  -0.92279  -1.61265
H     0.23905  -2.14728  -0.76131
24

C     3.39650  -1.13254  -0.31670
O     2.30273  -0.60158   0.44760
C     1.49120   0.25208  -0.18488
O     1.63596   0.59842  -1.34648
C     0.37780   0.67341   0.66839
N    -0.47357   1.56722   0.19291
O    -1.58320   1.77058   0.77538
C    -2.29966  -0.37462   0.70870
C    -3.25841  -0.10601  -0.41574
C    -1.13743  -1.07432   0.53269
C    -0.74833  -1.66703  -0.79870
H     4.06294  -0.32122  -0.64758
H     3.02403  -1.67989  -1.19400
H     3.93463  -1.81213   0.35470
H     0.41999   0.52130   1.74316
H    -0.42912   1.75706  -0.82187
H    -2.66184  -0.20674   1.72473
H    -4.03628   0.62101  -0.14470
H    -2.74705   0.25610  -1.32375
H    -3.75701  -1.05205  -0.68997
H    -0.66275  -1.50005   1.41825
H    -1.48662  -2.43424  -1.07773
H    -0.73177  -0.92408  -1.61395
H     0.23842  -2.14816  -0.76169
24

C     3.39732  -1.13241  -0.31682
O     2.30328  -0.60264   0.44753
C     1.48889   0.24783  -0.18503
O     1.63556   0.59828  -1.34463
C     0.36527   0.65536   0.66586
N    -0.47207   1.57288   0.19288
O    -1.59395   1.74954   0.77630
C    -2.29280  -0.35170   0.70764
C    -3.25729  -0.10538  -0.41544
C    -1.11930  -1.05531   0.53157
C    -0.74809  -1.66495  -0.79757
H     4.06309  -0.32109  -0.64754
H     3.02430  -1.67980  -1.19408
H     3.93497  -1.81210   0.35458
H     0.42260   0.52296   1.74282
H    -0.43314   1.75159  -0.82285
H    -2.66233  -0.20744   1.72425
H    -4.03742   0.61987  -0.14536
H    -2.74814   0.25540  -1.32474
H    -3.75443  -1.05383  -0.68689
H    -0.66517  -1.50124   1.41796
H    -1.48842  -2.43307  -1.07364
H    -0.73209  -0.92537  -1.61525
H     0.23780  -2.14905  -0.76206
24

C     3.39813  -1.13228  -0.31693
O     2.30383  -0.60370   0.44746
C     1.48658   0.24357  -0.18517
O     1.63517   0.59813  -1.34279
C     0.35275   0.63731   0.66333
N    -0.47056   1.57854   0.19286
O    -1.60470   1.72851   0.77722
C    -2.28595  -0.32877   0.70658
C    -3.25616  -0.10474  -0.41515
C    -1.10118  -1.03630   0.53045
C    -0.74785  -1.66287  -0.79645
H     4.06324  -0.32095  -0.64750
H     3.02458  -1.67972  -1.19416
H     3.93530  -1.81207   0.35446
H     0.42521   0.52461   1.74248
H    -0.43715   1.74612  -0.82384
H    -2.66282  -0.20814   1.72376
H    -4.03857   0.61873  -0.14603
H    -2.74922   0.25470  -1.32572
H    -3.75184  -1.05561  -0.68380
H    -0.66759  -1.50244   1.41767
H    -1.49022  -2.43190  -1.06955
H    -0.73241  -0.92666  -1.61655
H     0.23718  -2.14993  -0.76244
24

C     3.39894  -1.13215  -0.31705
O     2.30439  -0.60476   0.44738
C     1.48426   0.23932  -0.18532
O     1.63478   0.59799  -1.34095
C     0.34022   0.61926   0.66080
N    -0.46906   1.58420   0.19283
O    -1.61544   1.70748   0.77814
C    -2.27910  -0.30584   0.70552
C    -3.25504  -0.10411  -0.41485
C    -1.08305  -1.01729   0.52933
C    -0.74761  -1.66078  -0.79533
H     4.06338  -0.32082  -0.64746
H     3.02486  -1.67963  -1.19424
H     3.93564  -1.81204   0.35434
H     0.42781   0.52627   1.74213
H    -0.44117   1.74065  -0.82482
H    -2.66331  -0.20884   1.72327
H    -4.03971   0.61760  -0.14669
H    -2.75030   0.25400  -1.32670
H    -3.74926  -1.05739  -0.68072
H    -0.67001  -1.50364   1.41739
H    -1.49202  -2.43073  -1.06546
H    -0.73272  -0.92796  -1.61784
H     0.23656  -2.15081  -0.76281
24

C     3.39975  -1.13202  -0.31717
O     2.30494  -0.60583   0.44731
C     1.48195   0.23506  -0.18546
O     1.63438   0.59784  -1.33910
C     0.32770   0.60121   0.65827
N    -0.46756   1.58986   0.19281
O    -1.62619   1.68644   0.77907
C    -2.27224  -0.28292   0.70447
C    -3.25392  -0.10348  -0.41455
C    -1.06492  -0.99828   0.52822
C    -0.74737  -1.65870  -0.79420
H     4.06353  -0.32069  -0.64742
H     3.02513  -1.67955  -1.19432
H     3.93597  -1.81201   0.35423
H     0.43042   0.52792   1.74179
H    -0.44518   1.73517  -0.82581
H    -2.66380  -0.20954   1.72279
H    -4.04085   0.61646  -0.14735
H    -2.75138   0.25330  -1.32768
H    -3.74667  -1.05917  -0.67763
H    -0.67243  -1.50483   1.41710
H    -1.49382  -2.42956  -1.06137
H    -0.73304  -0.92925  -1.61914
H     0.23594  -2.15169  -0.76319
24

C     3.40057  -1.13189  -0.31728
O     2.30549  -0.60689   0.44724
C     1.47964   0.23081  -0.18561
O     1.63399   0.59769  -1.33726
C     0.31518   0.58316   0.65574
N    -0.46605   1.59552   0.19279
O    -1.63694   1.66541   0.77999
C    -2.26539  -0.25999   0.70341
C    -3.25280  -0.10284  -0.41426
C    -1.04680  -0.97926   0.52710
C    -0.74713  -1.65662  -0.79308
H     4.06368  -0.32055  -0.64737
H     3.02541  -1.67947  -1.19440
H     3.93631  -1.81198   0.35411
H     0.43303   0.52958   1.74145
H    -0.44919   1.72970  -0.82679
H    -2.66429  -0.21024   1.72230
H    -4.04199   0.61532  -0.14801
H    -2.75247   0.25259  -1.32866
H    -3.74409  -1.06095  -0.67455
H    -0.67485  -1.50603   1.41681
H    -1.49562  -2.42839  -1.05728
H    -0.73335  -0.93054  -1.62044
H     0.23532  -2.15258  -0.76357
24

C     3.40138  -1.13176  -0.31740
O     2.30604  -0.60795   0.44717
C     1.47733   0.22655  -0.18576
O     1.63360   0.59755  -1.33541
C     0.30265   0.56511   0.65321
N    -0.46455   1.60118   0.19276
O    -1.64769   1.64438   0.78091
C    -2.25854  -0.23707   0.70235
C    -3.25167  -0.10221  -0.41396
C    -1.02867  -0.96025   0.52598
C    -0.74689  -1.65454  -0.79195
H     4.06383  -0.32042  -0.64733
H     3.02568  -1.67938  -1.19448
H     3.93664  -1.81194   0.35399
H     0.43564   0.53124   1.74111
H    -0.45321   1.72423  -0.82777
H    -2.66478  -0.21094   1.72181
H    -4.04313   0.61419  -0.14868
H    -2.75355   0.25189  -1.32964
H    -3.74151  -1.06273  -0.67146
H    -0.67728  -1.50722   1.41652
H    -1.49742  -2.42722  -1.05319
H    -0.73367  -0.93183  -1.62174
H     0.23470  -2.15346  -0.76394
24

C     3.40219  -1.13163  -0.31752
O     2.30659  -0.60901   0.44709
C     1.47501   0.22230  -0.18590
O     1.63320   0.59740  -1.33357
C     0.29013   0.54706   0.65068
N    -0.46305   1.60684   0.19274
O    -1.65844   1.62334   0.78183
C    -2.25168  -0.21414   0.70129
C    -3.25055  -0.10157  -0.41366
C    -1.01055  -0.94124   0.52487
C    -0.74665  -1.65246  -0.79083
H     4.06397  -0.32029  -0.64729
H     3.02596  -1.67930  -1.19456
H     3.93697  -1.81191   0.35387
H     0.43825   0.53289   1.74076
H    -0.45722   1.71876  -0.82876
H    -2.66527  -0.21164   1.72133
H    -4.04427   0.61305  -0.14934
H    -2.75463   0.25119  -1.33062
H    -3.73892  -1.06451  -0.66838
H    -0.67970  -1.50842   1.41623
H    -1.49922  -2.42606  -1.04911
H    -0.73399  -0.93312  -1.62303
H     0.23408  -2.15434  -0.76432
24

C     3.40301  -1.13150  -0.31763
O     2.30714  -0.61007   0.44702
C     1.47270   0.21804  -0.18605
O     1.63281   0.59726  -1.33172
C     0.27761   0.52901   0.64815
N    -0.46155   1.61250   0.19271
O    -1.66919   1.60231   0.78276
C    -2.24483  -0.19121   0.70024
C    -3.24943  -0.10094  -0.41336
C    -0.99242  -0.92223   0.52375
C    -0.74641  -1.65037  -0.78970
H     4.06412  -0.32015  -0.64725
H     3.02623  -1.67922  -1.19464
H     3.93731  -1.81188   0.35375
H     0.44086   0.53455   1.74042
H    -0.46124   1.71329  -0.82974
H    -2.66576  -0.21234   1.72084
H    -4.04541   0.61191  -0.15000
H    -2.75571   0.25049  -1.33160
H    -3.73634  -1.06629  -0.66530
H    -0.68212  -1.50962   1.41594
H    -1.50102  -2.42489  -1.04502
H    -0.73430  -0.93441  -1.62433
H     0.23345  -2.15522  -0.76469
24

C     3.40382  -1.13137  -0.31775
O     2.30770  -0.61114   0.44695
C     1.47039   0.21379  -0.18619
O     1.63242   0.59711  -1.32988
C     0.26508   0.51096   0.64562
N    -0.46004   1.61816   0.19269
O    -1.67993   1.58128   0.78368
C    -2.23798  -0.16829   0.69918
C    -3.24830  -0.10031  -0.41307
C    -0.97430  -0.90322   0.52263
C    -0.74616  -1.64829  -0.78858
H     4.06427  -0.32002  -0.64721
H     3.02651  -1.67913  -1.19472
H     3.93764  -1.81185   0.35364
H     0.44347   0.53620   1.74008
H    -0.46525   1.70782  -0.83072
H    -2.66625  -0.21304   1.72035
H    -4.04655   0.61078  -0.15067
H    -2.75679   0.24979  -1.33258
H    -3.73375  -1.06807  -0.66221
H    -0.68454  -1.51081   1.41565
H    -1.50282  -2.42372  -1.04093
H    -0.73462  -0.93570  -1.62563
H     0.23283  -2.15610  -0.76507
24

C     3.40463  -1.13124  -0.31787
O     2.30825  -0.61220   0.44688
C     1.46808   0.20954  -0.18634
O     1.63202   0.59697  -1.32804
C     0.25256   0.49291   0.64308
N    -0.45854   1.62382   0.19266
O    -1.69068   1.56025   0.78460
C    -2.23113  -0.14536   0.69812
C    -3.24718  -0.09967  -0.41277
C    -0.95617  -0.88421   0.52151
C    -0.74592  -1.64621  -0.78746
H     4.06442  -0.31989  -0.64717
H     3.02678  -1.67905  -1.19480
H     3.93798  -1.81182   0.35352
H     0.44607   0.53786   1.73974
H    -0.46926   1.70235  -0.83171
H    -2.66674  -0.21374   1.71987
H    -4.04770   0.60964  -0.15133
H    -2.75788   0.24909  -1.33356
H    -3.73117  -1.06985  -0.65913
H    -0.68696  -1.51201   1.41537
H    -1.50462  -2.42255  -1.03684
H    -0.73494  -0.93700  -1.62693
H     0.23221  -2.15699  -0.76544
24

C     3.40544  -1.13111  -0.31798
O     2.30880  -0.61326   0.44680
C     1.46576   0.20528  -0.18648
O     1.63163   0.59682  -1.32619
C     0.24004   0.47486   0.64055
N    -0.45704   1.62948   0.19264
O    -1.70143   1.53921   0.78552
C    -2.22427  -0.12244   0.69706
C    -3.24606  -0.09904  -0.41247
C    -0.93804  -0.86520   0.52040
C    -0.74568  -1.64413  -0.78633
H     4.06456  -0.31976  -0.64713
H     3.02706  -1.67896  -1.19488
H     3.93831  -1.81179   0.35340
H     0.44868   0.53951   1.73940
H    -0.47328   1.69688  -0.83269
H    -2.66723  -0.21444   1.71938
H    -4.04884   0.60850  -0.15199
H    -2.75896   0.24839  -1.33454
H    -3.72858  -1.07163  -0.65604
H    -0.68938  -1.51320   1.41508
H    -1.50642  -2.42138  -1.03275
H    -0.73525  -0.93829  -1.62822
H     0.23159  -2.15787  -0.76582
24

C     3.40626  -1.13098  -0.31810
O     2.30935  -0.61432   0.44673
C     1.46345   0.20103  -0.18663
O     1.63124   0.59668  -1.32435
C     0.22751   0.45681   0.63802
N    -0.45553   1.63514   0.19261
O    -1.71218   1.51818   0.78645
C    -2.21742  -0.09951   0.69600
C    -3.24494  -0.09841  -0.41217
C    -0.91992  -0.84619   0.51928
C    -0.74544  -1.64205  -0.78521
H     4.06471  -0.31962  -0.64709
H     3.02734  -1.67888  -1.19496
H     3.93865  -1.81176   0.35328
H     0.45129   0.54117   1.73905
H    -0.47729   1.69141  -0.83368
H    -2.66773  -0.21514   1.71889
H    -4.04998   0.60737  -0.15266
H    -2.76004   0.24769  -1.33553
H    -3.72600  -1.07341  -0.65296
H    -0.69180  -1.51440   1.41479
H    -1.50822  -2.42021  -1.02866
H    -0.73557  -0.93958  -1.62952
H     0.23097  -2.15875  -0.76620
