13

O -0.766658941 1.450665324 2.552088000
C -1.828185190 -0.632713433 1.281113729
C -2.052052635 -0.616493555 -1.510190752
C -0.247270115 -2.149035987 -0.442627338
O 3.037070412 -1.026174576 -0.611485252
C 3.375779915 1.114313028 -1.493690136
O 1.723846872 2.436534744 -2.655108177
H -1.790070907 2.898475196 2.176510357
H -3.113492959 -1.694246316 2.493191681
H -3.554143661 -1.067333000 -2.815113991
H -0.037484589 1.430483257 -2.416945862
H 0.331621159 -4.101262158 -0.450586581
H 5.251258941 1.981079926 -1.305161042

