15

C 2.753729337 1.360375060 -0.378417638
C 0.880666023 0.819491223 1.591946767
O 1.459020181 -0.883131833 3.323079818
C -1.588044445 1.593370505 1.449678471
C -2.479561313 -0.989836125 -1.104159094
O -1.669887973 -0.358512850 -3.360367365
C -0.747802214 -2.888055926 -1.799096390
H 2.465223035 -0.238220727 -1.717752241
H 2.393948140 3.128413537 -1.354136016
H 4.682229788 1.302557226 0.343607862
H 2.933020334 -1.822510607 2.808127522
H -2.827771679 1.126584966 3.009211559
H -2.030242852 3.262834820 0.359241793
H -4.448873745 -0.920646846 -0.528654323
H -1.786221837 -4.479845279 -2.620034634

