16

C 3.029180862 -0.468531288 1.414053845
C 1.171222489 -1.806134335 -0.274744598
C -1.623809817 -1.632408109 0.111110510
C -2.497913974 2.236728936 0.394625856
C -0.861402609 2.294304337 -1.986584566
C -0.398667300 -0.510967525 -2.230843025
H 3.442606300 -1.607720122 3.083055574
H 2.280720910 1.341092635 2.059955281
H 4.803826332 -0.121235606 0.420748788
H 1.747657233 -3.680886062 -0.877505249
H -2.929515308 -3.200703630 0.149406037
H -4.455973729 1.890084832 -0.206581288
H -1.988849630 -0.038046744 1.643373396
H 0.862860155 3.411931528 -1.776582949
H -1.893656131 3.013593910 -3.620866943
H -0.621852459 -1.442312715 -4.038094434

