14

C 2.833173026 0.989796498 -0.612839751
C 0.875390796 0.200486525 1.447632691
C -1.394726464 1.492023681 0.312389624
C -3.122342149 -0.604328556 -0.450050050
O -1.244941782 -2.529674261 -1.243635660
C 0.830142627 -2.118480099 0.006411047
H 3.146301722 3.019874622 -0.444760158
H 4.660750934 0.021139780 -0.715922440
H 1.357346490 0.234257575 3.441142877
H 0.765085706 1.484181941 -1.875199781
H -2.171110105 3.174287451 1.185107176
H -4.308133557 -0.219945564 -2.088054204
H -4.287234074 -1.518709656 1.022190013
H 2.298445785 -3.525005748 -0.181528717

