12

C -0.607275660 -3.608378575 1.415003282
H -1.423711612 -5.321610591 2.176096355
C 1.637780789 -2.499684345 1.696824091
H 3.310508056 -2.916039936 2.796089608
C 1.001477518 -0.468911671 -0.154581808
C -1.639668229 -1.661949725 -0.422704333
H -3.149489482 -0.467896812 0.314899936
H -2.146758546 -2.340799461 -2.304321284
C 2.536219611 0.909206330 -1.973819164
H 4.580401253 0.719035329 -1.931987242
H 1.731105670 1.445246610 -3.785157351
O 1.453892522 2.130002590 0.168402830

