12

O -3.441684227 -1.833789834 3.808483431
C -2.544554758 -2.157442680 1.864313919
C -0.716142914 1.009104944 0.426263594
C 1.956092380 1.621164087 0.879820843
C 1.158732193 1.120028448 -1.803466552
C 0.407719674 -1.398138062 -2.066963878
N -0.273272274 -3.539716888 -2.200624452
H -1.657862890 -3.687647748 -0.490903680
H -2.197867247 2.415381811 0.485012326
H 3.176213876 0.264671432 1.817604878
H 2.451111184 3.581211702 1.224857905
H 1.232708848 2.477529347 -3.324466122

