14

C -2.762161087 -0.986222855 0.478900555
C -0.952268200 0.179562702 -1.439334923
C 0.731956445 2.281979619 -0.309634214
O 2.715667853 1.391368345 1.342942658
C 3.075033782 -1.109191756 1.289064223
N 2.385078314 -2.427874167 -0.603793121
C 1.115052912 -1.508188606 -2.526139245
H -1.776021020 -1.791053432 2.099794770
H -4.085020226 0.434201446 1.178471686
H -2.030037685 1.044655436 -2.968965608
H -0.438119661 3.518599614 0.848905037
H 1.643244989 3.393208027 -1.786623442
H 4.058949470 -1.865937137 2.914333494
H -3.857268601 -2.493339646 -0.403960045

