14

C -2.945582062 -0.737234053 0.190967332
C -0.937242912 0.640443906 -1.323425245
C 0.894228380 2.357913199 0.056646128
O 3.375488708 1.270274317 0.234780915
C 3.349758462 -1.181025708 0.887062160
N 1.624054744 -2.779668095 0.385568531
C -0.129177823 -2.056211185 -1.486599789
H -2.765833713 -0.592633722 2.227433695
H -4.852177734 -0.605222397 -0.555405645
H -1.636161993 1.425781769 -3.084419635
H 0.264719601 2.764516290 1.981753179
H 1.145509420 4.137005798 -0.939223250
H 5.040462467 -1.735891325 1.911169943
H -2.483584597 -2.887354365 -0.452140181

