10

N -3.266299709 -0.278241253 0.454223264
C -0.707173291 -0.057352243 -0.052808586
N 0.998722392 -1.909356883 0.438820314
C 3.129591705 -0.629902352 0.563579258
N 2.934372282 1.873076012 0.134100578
N 0.513330023 2.338655907 -0.204478571
H -3.995335431 -1.961260082 -0.055600788
H -4.309314504 1.200127853 -0.137532037
H 4.943620636 -1.506447790 0.901386228
H -0.221995142 0.806744227 -2.201715467

