12

C -2.967295998 2.685361294 -0.492672388
C -1.140963117 1.544922954 1.337440758
N 3.046255237 -4.183559013 -2.899792410
C 3.143055343 -3.190320776 -0.723049750
C 2.811148117 -0.526354526 -0.101224597
N 0.826941790 0.390058710 0.631406971
H -2.256522457 2.529321789 -2.418188016
H -4.799347927 1.737844943 -0.394908899
H -3.277318607 4.680035079 -0.061169112
H -1.469785762 1.684549167 3.356934281
H 2.631746816 -2.868608396 -4.246219270
H 3.649613967 -4.381808839 0.888067986

