12

C -2.559122770 -0.584212365 0.136864567
C 0.109783564 0.230345350 -0.440817717
N 0.711181590 1.867899674 -2.295804458
O -0.266292854 3.462550526 -0.006763235
C 2.168918212 -1.375032116 0.688969295
H -2.787978941 -2.472379655 -0.679347036
H -3.915283514 0.686044018 -0.738286801
H -2.910998883 -0.738634548 2.164658731
H 1.325934745 3.995755782 0.694536372
H 3.153047591 -2.274624502 -0.889152538
H 1.498693034 -2.803913962 2.012220270
H 3.554130433 -0.167201380 1.623725176

