26

C     4.14751  -0.79261  -1.43025
N     2.77832  -0.36542  -1.22261
C     2.26263  -0.35039   0.01020
O     2.89186  -0.69086   1.02996
C     0.92211   0.11253   0.28760
C    -0.00945   0.45545   0.93669
C    -0.79721   0.74821   2.10662
C    -0.61907  -0.35114   3.12011
O    -1.39342   1.79724   2.31070
N    -1.81639   0.85953  -0.92468
C    -2.32221  -0.46201  -0.64768
C    -2.77257  -1.12107  -1.92036
O    -2.57004  -0.86119   0.46367
N    -0.79906   1.00197  -1.64698
O     0.01106   0.18507  -2.04080
H     4.30169  -1.80527  -1.01539
H     4.85620  -0.11609  -0.91674
H     4.36570  -0.80131  -2.49442
H     2.21427  -0.05154  -2.00719
H     0.48343  -0.56537   3.18531
H    -1.01617  -0.05290   4.06244
H    -1.08020  -1.26826   2.73096
H    -3.33905  -1.99716  -1.68579
H    -1.89465  -1.33896  -2.53425
H    -3.39068  -0.37920  -2.47772
H    -0.65780   1.97677  -1.97038
26

C     4.14750  -0.79267  -1.42883
N     2.77831  -0.36495  -1.22254
C     2.25857  -0.34885   0.00884
O     2.88394  -0.68781   1.03035
C     0.91251   0.11368   0.26742
C    -0.02503   0.45714   0.91970
C    -0.79623   0.74753   2.10283
C    -0.61541  -0.35088   3.11634
O    -1.39118   1.79623   2.30938
N    -1.80089   0.85340  -0.90626
C    -2.32177  -0.46112  -0.64459
C    -2.77186  -1.11663  -1.91935
O    -2.57232  -0.86455   0.46531
N    -0.80054   1.00085  -1.65093
O     0.02423   0.18364  -2.02080
H     4.30154  -1.80529  -1.01490
H     4.85615  -0.11610  -0.91629
H     4.36583  -0.80140  -2.49398
H     2.21471  -0.05178  -2.00764
H     0.48452  -0.56558   3.18341
H    -1.01429  -0.05234   4.06154
H    -1.07967  -1.26813   2.73047
H    -3.33966  -1.99545  -1.68593
H    -1.89421  -1.33828  -2.53338
H    -3.38952  -0.37743  -2.47784
H    -0.65456   1.97690  -1.96538
26

C     4.14748  -0.79274  -1.42740
N     2.77830  -0.36448  -1.22246
C     2.25450  -0.34730   0.00749
O     2.87602  -0.68476   1.03073
C     0.90291   0.11482   0.24725
C    -0.04061   0.45884   0.90271
C    -0.79525   0.74685   2.09905
C    -0.61176  -0.35061   3.11256
O    -1.38894   1.79521   2.30806
N    -1.78540   0.84727  -0.88783
C    -2.32134  -0.46023  -0.64149
C    -2.77115  -1.11219  -1.91834
O    -2.57461  -0.86792   0.46694
N    -0.80203   0.99973  -1.65489
O     0.03741   0.18221  -2.00080
H     4.30140  -1.80530  -1.01441
H     4.85611  -0.11611  -0.91584
H     4.36596  -0.80150  -2.49354
H     2.21515  -0.05202  -2.00809
H     0.48561  -0.56578   3.18152
H    -1.01240  -0.05178   4.06064
H    -1.07915  -1.26800   2.72999
H    -3.34028  -1.99375  -1.68607
H    -1.89377  -1.33760  -2.53251
H    -3.38836  -0.37567  -2.47796
H    -0.65132   1.97703  -1.96038
26

C     4.14746  -0.79281  -1.42598
N     2.77829  -0.36402  -1.22238
C     2.25043  -0.34576   0.00613
O     2.86811  -0.68171   1.03112
C     0.89331   0.11596   0.22707
C    -0.05619   0.46054   0.88571
C    -0.79427   0.74617   2.09527
C    -0.60810  -0.35035   3.10878
O    -1.38671   1.79420   2.30673
N    -1.76990   0.84114  -0.86941
C    -2.32091  -0.45935  -0.63839
C    -2.77044  -1.10775  -1.91734
O    -2.57689  -0.87128   0.46858
N    -0.80351   0.99861  -1.65884
O     0.05058   0.18079  -1.98081
H     4.30125  -1.80531  -1.01391
H     4.85607  -0.11612  -0.91539
H     4.36610  -0.80159  -2.49310
H     2.21560  -0.05227  -2.00855
H     0.48670  -0.56599   3.17962
H    -1.01051  -0.05122   4.05974
H    -1.07863  -1.26787   2.72951
H    -3.34089  -1.99205  -1.68620
H    -1.89333  -1.33692  -2.53163
H    -3.38720  -0.37390  -2.47807
H    -0.64808   1.97716  -1.95538
26

C     4.14745  -0.79288  -1.42456
N     2.77828  -0.36355  -1.22230
C     2.24636  -0.34421   0.00478
O     2.86019  -0.67866   1.03151
C     0.88371   0.11710   0.20690
C    -0.07177   0.46224   0.86872
C    -0.79329   0.74549   2.09149
C    -0.60444  -0.35008   3.10501
O    -1.38447   1.79319   2.30541
N    -1.75440   0.83501  -0.85098
C    -2.32048  -0.45846  -0.63530
C    -2.76973  -1.10331  -1.91633
O    -2.57917  -0.87464   0.47021
N    -0.80500   0.99749  -1.66279
O     0.06376   0.17936  -1.96081
H     4.30110  -1.80532  -1.01342
H     4.85603  -0.11614  -0.91494
H     4.36623  -0.80168  -2.49267
H     2.21604  -0.05251  -2.00900
H     0.48779  -0.56620   3.17773
H    -1.00862  -0.05067   4.05884
H    -1.07811  -1.26775   2.72902
H    -3.34151  -1.99034  -1.68634
H    -1.89288  -1.33624  -2.53076
H    -3.38604  -0.37214  -2.47819
H    -0.64484   1.97729  -1.95038
26

C     4.14743  -0.79295  -1.42313
N     2.77826  -0.36308  -1.22223
C     2.24229  -0.34267   0.00343
O     2.85227  -0.67561   1.03190
C     0.87412   0.11824   0.18672
C    -0.08736   0.46394   0.85173
C    -0.79231   0.74481   2.08771
C    -0.60078  -0.34982   3.10123
O    -1.38224   1.79218   2.30409
N    -1.73891   0.82888  -0.83256
C    -2.32005  -0.45757  -0.63220
C    -2.76902  -1.09888  -1.91532
O    -2.58146  -0.87801   0.47185
N    -0.80648   0.99637  -1.66674
O     0.07693   0.17793  -1.94081
H     4.30096  -1.80533  -1.01293
H     4.85598  -0.11615  -0.91449
H     4.36636  -0.80178  -2.49223
H     2.21648  -0.05275  -2.00945
H     0.48888  -0.56641   3.17583
H    -1.00674  -0.05011   4.05794
H    -1.07758  -1.26762   2.72854
H    -3.34213  -1.98864  -1.68648
H    -1.89244  -1.33556  -2.52989
H    -3.38488  -0.37037  -2.47831
H    -0.64160   1.97742  -1.94538
26

C     4.14741  -0.79302  -1.42171
N     2.77825  -0.36261  -1.22215
C     2.23823  -0.34112   0.00207
O     2.84435  -0.67257   1.03229
C     0.86452   0.11938   0.16655
C    -0.10294   0.46563   0.83474
C    -0.79133   0.74414   2.08392
C    -0.59713  -0.34955   3.09745
O    -1.38000   1.79117   2.30277
N    -1.72341   0.82275  -0.81413
C    -2.31962  -0.45669  -0.62911
C    -2.76831  -1.09444  -1.91431
O    -2.58374  -0.88137   0.47348
N    -0.80796   0.99525  -1.67070
O     0.09011   0.17651  -1.92081
H     4.30081  -1.80535  -1.01244
H     4.85594  -0.11616  -0.91404
H     4.36649  -0.80187  -2.49179
H     2.21693  -0.05300  -2.00990
H     0.48998  -0.56662   3.17393
H    -1.00485  -0.04955   4.05704
H    -1.07706  -1.26749   2.72806
H    -3.34274  -1.98694  -1.68662
H    -1.89200  -1.33488  -2.52902
H    -3.38372  -0.36861  -2.47843
H    -0.63836   1.97755  -1.94037
26

C     4.14739  -0.79309  -1.42029
N     2.77824  -0.36214  -1.22207
C     2.23416  -0.33958   0.00072
O     2.83644  -0.66952   1.03267
C     0.85492   0.12053   0.14638
C    -0.11852   0.46733   0.81775
C    -0.79035   0.74346   2.08014
C    -0.59347  -0.34929   3.09367
O    -1.37776   1.79016   2.30145
N    -1.70791   0.81662  -0.79570
C    -2.31919  -0.45580  -0.62601
C    -2.76760  -1.09000  -1.91331
O    -2.58602  -0.88473   0.47512
N    -0.80945   0.99413  -1.67465
O     0.10329   0.17508  -1.90081
H     4.30066  -1.80536  -1.01195
H     4.85590  -0.11617  -0.91358
H     4.36663  -0.80197  -2.49135
H     2.21737  -0.05324  -2.01035
H     0.49107  -0.56683   3.17204
H    -1.00296  -0.04899   4.05614
H    -1.07654  -1.26736   2.72758
H    -3.34336  -1.98523  -1.68675
H    -1.89156  -1.33420  -2.52815
H    -3.38256  -0.36684  -2.47855
H    -0.63512   1.97768  -1.93537
26

C     4.14738  -0.79316  -1.41886
N     2.77823  -0.36168  -1.22199
C     2.23009  -0.33803  -0.00064
O     2.82852  -0.66647   1.03306
C     0.84532   0.12167   0.12620
C    -0.13410   0.46903   0.80075
C    -0.78936   0.74278   2.07636
C    -0.58981  -0.34903   3.08990
O    -1.37553   1.78914   2.30013
N    -1.69242   0.81050  -0.77728
C    -2.31875  -0.45491  -0.62292
C    -2.76689  -1.08556  -1.91230
O    -2.58830  -0.88810   0.47675
N    -0.81093   0.99302  -1.67860
O     0.11646   0.17365  -1.88081
H     4.30051  -1.80537  -1.01146
H     4.85585  -0.11619  -0.91313
H     4.36676  -0.80206  -2.49091
H     2.21782  -0.05349  -2.01081
H     0.49216  -0.56704   3.17014
H    -1.00107  -0.04843   4.05524
H    -1.07602  -1.26723   2.72709
H    -3.34397  -1.98353  -1.68689
H    -1.89111  -1.33352  -2.52728
H    -3.38140  -0.36508  -2.47867
H    -0.63188   1.97781  -1.93037
26

C     4.14736  -0.79323  -1.41744
N     2.77822  -0.36121  -1.22191
C     2.22602  -0.33649  -0.00199
O     2.82060  -0.66342   1.03345
C     0.83572   0.12281   0.10603
C    -0.14968   0.47073   0.78376
C    -0.78838   0.74210   2.07258
C    -0.58615  -0.34876   3.08612
O    -1.37329   1.78813   2.29881
N    -1.67692   0.80437  -0.75885
C    -2.31832  -0.45402  -0.61982
C    -2.76618  -1.08112  -1.91129
O    -2.59059  -0.89146   0.47839
N    -0.81242   0.99190  -1.68255
O     0.12964   0.17223  -1.86081
H     4.30037  -1.80538  -1.01097
H     4.85581  -0.11620  -0.91268
H     4.36689  -0.80215  -2.49047
H     2.21826  -0.05373  -2.01126
H     0.49325  -0.56725   3.16824
H    -0.99919  -0.04788   4.05434
H    -1.07549  -1.26710   2.72661
H    -3.34459  -1.98182  -1.68703
H    -1.89067  -1.33284  -2.52641
H    -3.38024  -0.36331  -2.47878
H    -0.62864   1.97794  -1.92537
26

C     4.14734  -0.79330  -1.41602
N     2.77821  -0.36074  -1.22184
C     2.22195  -0.33494  -0.00334
O     2.81268  -0.66037   1.03384
C     0.82612   0.12395   0.08585
C    -0.16526   0.47242   0.76677
C    -0.78740   0.74142   2.06879
C    -0.58250  -0.34850   3.08234
O    -1.37106   1.78712   2.29748
N    -1.66142   0.79824  -0.74043
C    -2.31789  -0.45314  -0.61673
C    -2.76547  -1.07669  -1.91028
O    -2.59287  -0.89482   0.48002
N    -0.81390   0.99078  -1.68651
O     0.14281   0.17080  -1.84081
H     4.30022  -1.80540  -1.01048
H     4.85577  -0.11621  -0.91223
H     4.36703  -0.80225  -2.49004
H     2.21870  -0.05397  -2.01171
H     0.49434  -0.56746   3.16635
H    -0.99730  -0.04732   4.05344
H    -1.07497  -1.26698   2.72613
H    -3.34520  -1.98012  -1.68717
H    -1.89023  -1.33216  -2.52554
H    -3.37908  -0.36154  -2.47890
H    -0.62539   1.97807  -1.92037
26

C     4.14732  -0.79337  -1.41459
N     2.77819  -0.36027  -1.22176
C     2.21788  -0.33339  -0.00470
O     2.80477  -0.65732   1.03423
C     0.81653   0.12509   0.06568
C    -0.18084   0.47412   0.74978
C    -0.78642   0.74074   2.06501
C    -0.57884  -0.34823   3.07857
O    -1.36882   1.78611   2.29616
N    -1.64593   0.79211  -0.72200
C    -2.31746  -0.45225  -0.61363
C    -2.76476  -1.07225  -1.90927
O    -2.59515  -0.89819   0.48166
N    -0.81539   0.98966  -1.69046
O     0.15599   0.16937  -1.82081
H     4.30007  -1.80541  -1.00998
H     4.85572  -0.11622  -0.91178
H     4.36716  -0.80234  -2.48960
H     2.21915  -0.05422  -2.01216
H     0.49543  -0.56767   3.16445
H    -0.99541  -0.04676   4.05254
H    -1.07445  -1.26685   2.72564
H    -3.34582  -1.97842  -1.68730
H    -1.88979  -1.33148  -2.52467
H    -3.37792  -0.35978  -2.47902
H    -0.62215   1.97820  -1.91536
26

C     4.14731  -0.79344  -1.41317
N     2.77818  -0.35981  -1.22168
C     2.21382  -0.33185  -0.00605
O     2.79685  -0.65427   1.03462
C     0.80693   0.12624   0.04550
C    -0.19642   0.47582   0.73279
C    -0.78544   0.74006   2.06123
C    -0.57518  -0.34797   3.07479
O    -1.36658   1.78510   2.29484
N    -1.63043   0.78598  -0.70357
C    -2.31703  -0.45136  -0.61053
C    -2.76405  -1.06781  -1.90827
O    -2.59744  -0.90155   0.48329
N    -0.81687   0.98854  -1.69441
O     0.16916   0.16795  -1.80081
H     4.29993  -1.80542  -1.00949
H     4.85568  -0.11624  -0.91133
H     4.36729  -0.80244  -2.48916
H     2.21959  -0.05446  -2.01261
H     0.49652  -0.56788   3.16255
H    -0.99352  -0.04620   4.05164
H    -1.07392  -1.26672   2.72516
H    -3.34643  -1.97671  -1.68744
H    -1.88934  -1.33080  -2.52380
H    -3.37676  -0.35801  -2.47914
H    -0.61891   1.97833  -1.91036
26

C     4.14729  -0.79350  -1.41174
N     2.77817  -0.35934  -1.22160
C     2.20975  -0.33030  -0.00741
O     2.78893  -0.65122   1.03500
C     0.79733   0.12738   0.02533
C    -0.21200   0.47752   0.71580
C    -0.78446   0.73938   2.05745
C    -0.57152  -0.34770   3.07101
O    -1.36435   1.78408   2.29352
N    -1.61493   0.77985  -0.68515
C    -2.31660  -0.45048  -0.60744
C    -2.76334  -1.06337  -1.90726
O    -2.59972  -0.90491   0.48493
N    -0.81835   0.98742  -1.69836
O     0.18234   0.16652  -1.78081
H     4.29978  -1.80543  -1.00900
H     4.85564  -0.11625  -0.91088
H     4.36742  -0.80253  -2.48872
H     2.22003  -0.05470  -2.01307
H     0.49761  -0.56809   3.16066
H    -0.99164  -0.04564   4.05074
H    -1.07340  -1.26659   2.72468
H    -3.34705  -1.97501  -1.68758
H    -1.88890  -1.33012  -2.52293
H    -3.37560  -0.35625  -2.47926
H    -0.61567   1.97846  -1.90536
26

C     4.14727  -0.79357  -1.41032
N     2.77816  -0.35887  -1.22153
C     2.20568  -0.32876  -0.00876
O     2.78101  -0.64817   1.03539
C     0.78773   0.12852   0.00515
C    -0.22759   0.47921   0.69880
C    -0.78348   0.73870   2.05366
C    -0.56786  -0.34744   3.06724
O    -1.36211   1.78307   2.29220
N    -1.59944   0.77372  -0.66672
C    -2.31617  -0.44959  -0.60434
C    -2.76263  -1.05893  -1.90625
O    -2.60200  -0.90828   0.48656
N    -0.81984   0.98630  -1.70232
O     0.19552   0.16509  -1.76081
H     4.29963  -1.80544  -1.00851
H     4.85559  -0.11626  -0.91043
H     4.36756  -0.80262  -2.48828
H     2.22048  -0.05495  -2.01352
H     0.49870  -0.56830   3.15876
H    -0.98975  -0.04509   4.04985
H    -1.07288  -1.26646   2.72419
H    -3.34766  -1.97331  -1.68771
H    -1.88846  -1.32944  -2.52206
H    -3.37444  -0.35448  -2.47938
H    -0.61243   1.97859  -1.90036
26

C     4.14725  -0.79364  -1.40890
N     2.77815  -0.35840  -1.22145
C     2.20161  -0.32721  -0.01011
O     2.77310  -0.64513   1.03578
C     0.77813   0.12966  -0.01502
C    -0.24317   0.48091   0.68181
C    -0.78250   0.73803   2.04988
C    -0.56421  -0.34718   3.06346
O    -1.35987   1.78206   2.29088
N    -1.58394   0.76759  -0.64830
C    -2.31573  -0.44870  -0.60125
C    -2.76192  -1.05450  -1.90524
O    -2.60428  -0.91164   0.48820
N    -0.82132   0.98518  -1.70627
O     0.20869   0.16367  -1.74081
H     4.29949  -1.80546  -1.00802
H     4.85555  -0.11627  -0.90997
H     4.36769  -0.80272  -2.48784
H     2.22092  -0.05519  -2.01397
H     0.49979  -0.56851   3.15686
H    -0.98786  -0.04453   4.04895
H    -1.07236  -1.26634   2.72371
H    -3.34828  -1.97160  -1.68785
H    -1.88802  -1.32876  -2.52119
H    -3.37328  -0.35272  -2.47949
H    -0.60919   1.97872  -1.89536
26

C     4.14724  -0.79371  -1.40747
N     2.77814  -0.35794  -1.22137
C     2.19754  -0.32567  -0.01147
O     2.76518  -0.64208   1.03617
C     0.76854   0.13080  -0.03520
C    -0.25875   0.48261   0.66482
C    -0.78152   0.73735   2.04610
C    -0.56055  -0.34691   3.05968
O    -1.35764   1.78105   2.28955
N    -1.56844   0.76146  -0.62987
C    -2.31530  -0.44781  -0.59815
C    -2.76121  -1.05006  -1.90424
O    -2.60657  -0.91500   0.48983
N    -0.82281   0.98407  -1.71022
O     0.22187   0.16224  -1.72081
H     4.29934  -1.80547  -1.00753
H     4.85551  -0.11629  -0.90952
H     4.36782  -0.80281  -2.48741
H     2.22136  -0.05544  -2.01442
H     0.50088  -0.56872   3.15497
H    -0.98597  -0.04397   4.04805
H    -1.07183  -1.26621   2.72323
H    -3.34889  -1.96990  -1.68799
H    -1.88757  -1.32808  -2.52032
H    -3.37212  -0.35095  -2.47961
H    -0.60595   1.97885  -1.89036
26

C     4.14722  -0.79378  -1.40605
N     2.77812  -0.35747  -1.22129
C     2.19348  -0.32412  -0.01282
O     2.75726  -0.63903   1.03656
C     0.75894   0.13194  -0.05537
C    -0.27433   0.48431   0.64783
C    -0.78054   0.73667   2.04232
C    -0.55689  -0.34665   3.05591
O    -1.35540   1.78004   2.28823
N    -1.55295   0.75534  -0.61145
C    -2.31487  -0.44693  -0.59506
C    -2.76051  -1.04562  -1.90323
O    -2.60885  -0.91837   0.49147
N    -0.82429   0.98295  -1.71417
O     0.23504   0.16081  -1.70081
H     4.29919  -1.80548  -1.00704
H     4.85546  -0.11630  -0.90907
H     4.36796  -0.80291  -2.48697
H     2.22181  -0.05568  -2.01487
H     0.50197  -0.56893   3.15307
H    -0.98409  -0.04341   4.04715
H    -1.07131  -1.26608   2.72274
H    -3.34951  -1.96820  -1.68813
H    -1.88713  -1.32740  -2.51945
H    -3.37096  -0.34919  -2.47973
H    -0.60271   1.97898  -1.88535
26

C     4.14720  -0.79385  -1.40463
N     2.77811  -0.35700  -1.22121
C     2.18941  -0.32258  -0.01418
O     2.74934  -0.63598   1.03694
C     0.74934   0.13309  -0.07555
C    -0.28991   0.48601   0.63084
C    -0.77956   0.73599   2.03854
C    -0.55323  -0.34638   3.05213
O    -1.35317   1.77903   2.28691
N    -1.53745   0.74921  -0.59302
C    -2.31444  -0.44604  -0.59196
C    -2.75980  -1.04118  -1.90222
O    -2.61113  -0.92173   0.49310
N    -0.82577   0.98183  -1.71813
O     0.24822   0.15939  -1.68081
H     4.29904  -1.80549  -1.00655
H     4.85542  -0.11631  -0.90862
H     4.36809  -0.80300  -2.48653
H     2.22225  -0.05592  -2.01533
H     0.50307  -0.56914   3.15117
H    -0.98220  -0.04285   4.04625
H    -1.07079  -1.26595   2.72226
H    -3.35012  -1.96649  -1.68826
H    -1.88669  -1.32672  -2.51858
H    -3.36980  -0.34742  -2.47985
H    -0.59947   1.97911  -1.88035
26

C     4.14718  -0.79392  -1.40320
N     2.77810  -0.35653  -1.22114
C     2.18534  -0.32103  -0.01553
O     2.74143  -0.63293   1.03733
C     0.73974   0.13423  -0.09572
C    -0.30549   0.48770   0.61384
C    -0.77858   0.73531   2.03475
C    -0.54958  -0.34612   3.04835
O    -1.35093   1.77801   2.28559
N    -1.52196   0.74308  -0.57459
C    -2.31401  -0.44515  -0.58886
C    -2.75909  -1.03674  -1.90121
O    -2.61342  -0.92509   0.49474
N    -0.82726   0.98071  -1.72208
O     0.26140   0.15796  -1.66081
H     4.29890  -1.80550  -1.00605
H     4.85538  -0.11633  -0.90817
H     4.36822  -0.80309  -2.48609
H     2.22269  -0.05617  -2.01578
H     0.50416  -0.56935   3.14928
H    -0.98031  -0.04230   4.04535
H    -1.07027  -1.26582   2.72178
H    -3.35074  -1.96479  -1.68840
H    -1.88625  -1.32604  -2.51771
H    -3.36864  -0.34565  -2.47997
H    -0.59623   1.97924  -1.87535
26

C     4.14717  -0.79399  -1.40178
N     2.77809  -0.35607  -1.22106
C     2.18127  -0.31949  -0.01689
O     2.73351  -0.62988   1.03772
C     0.73014   0.13537  -0.11590
C    -0.32107   0.48940   0.59685
C    -0.77759   0.73463   2.03097
C    -0.54592  -0.34585   3.04458
O    -1.34869   1.77700   2.28427
N    -1.50646   0.73695  -0.55617
C    -2.31358  -0.44427  -0.58577
C    -2.75838  -1.03231  -1.90020
O    -2.61570  -0.92846   0.49637
N    -0.82874   0.97959  -1.72603
O     0.27457   0.15653  -1.64081
H     4.29875  -1.80552  -1.00556
H     4.85533  -0.11634  -0.90772
H     4.36836  -0.80319  -2.48565
H     2.22314  -0.05641  -2.01623
H     0.50525  -0.56956   3.14738
H    -0.97842  -0.04174   4.04445
H    -1.06974  -1.26569   2.72129
H    -3.35136  -1.96308  -1.68854
H    -1.88580  -1.32536  -2.51684
H    -3.36748  -0.34389  -2.48009
H    -0.59298   1.97936  -1.87035
26

C     4.14718  -0.79392  -1.40320
N     2.77810  -0.35653  -1.22114
C     2.18534  -0.32103  -0.01553
O     2.74143  -0.63293   1.03733
C     0.73974   0.13423  -0.09572
C    -0.30549   0.48770   0.61384
C    -0.77858   0.73531   2.03475
C    -0.54958  -0.34612   3.04835
O    -1.35093   1.77801   2.28559
N    -1.52196   0.74308  -0.57459
C    -2.31401  -0.44515  -0.58886
C    -2.75909  -1.03674  -1.90121
O    -2.61342  -0.92509   0.49474
N    -0.82726   0.98071  -1.72208
O     0.26140   0.15796  -1.66081
H     4.29890  -1.80550  -1.00605
H     4.85538  -0.11633  -0.90817
H     4.36822  -0.80309  -2.48609
H     2.22269  -0.05617  -2.01578
H     0.50416  -0.56935   3.14928
H    -0.98031  -0.04230   4.04535
H    -1.07027  -1.26582   2.72178
H    -3.35074  -1.96479  -1.68840
H    -1.88625  -1.32604  -2.51771
H    -3.36864  -0.34565  -2.47997
H    -0.59623   1.97924  -1.87535
26

C     4.14720  -0.79385  -1.40463
N     2.77811  -0.35700  -1.22121
C     2.18941  -0.32258  -0.01418
O     2.74934  -0.63598   1.03694
C     0.74934   0.13309  -0.07555
C    -0.28991   0.48601   0.63084
C    -0.77956   0.73599   2.03854
C    -0.55323  -0.34638   3.05213
O    -1.35317   1.77903   2.28691
N    -1.53745   0.74921  -0.59302
C    -2.31444  -0.44604  -0.59196
C    -2.75980  -1.04118  -1.90222
O    -2.61113  -0.92173   0.49310
N    -0.82577   0.98183  -1.71813
O     0.24822   0.15939  -1.68081
H     4.29904  -1.80549  -1.00655
H     4.85542  -0.11631  -0.90862
H     4.36809  -0.80300  -2.48653
H     2.22225  -0.05592  -2.01533
H     0.50307  -0.56914   3.15117
H    -0.98220  -0.04285   4.04625
H    -1.07079  -1.26595   2.72226
H    -3.35012  -1.96649  -1.68826
H    -1.88669  -1.32672  -2.51858
H    -3.36980  -0.34742  -2.47985
H    -0.59947   1.97911  -1.88035
26

C     4.14722  -0.79378  -1.40605
N     2.77812  -0.35747  -1.22129
C     2.19348  -0.32412  -0.01282
O     2.75726  -0.63903   1.03656
C     0.75894   0.13194  -0.05537
C    -0.27433   0.48431   0.64783
C    -0.78054   0.73667   2.04232
C    -0.55689  -0.34665   3.05591
O    -1.35540   1.78004   2.28823
N    -1.55295   0.75534  -0.61145
C    -2.31487  -0.44693  -0.59506
C    -2.76051  -1.04562  -1.90323
O    -2.60885  -0.91837   0.49147
N    -0.82429   0.98295  -1.71417
O     0.23504   0.16081  -1.70081
H     4.29919  -1.80548  -1.00704
H     4.85546  -0.11630  -0.90907
H     4.36796  -0.80291  -2.48697
H     2.22181  -0.05568  -2.01487
H     0.50197  -0.56893   3.15307
H    -0.98409  -0.04341   4.04715
H    -1.07131  -1.26608   2.72274
H    -3.34951  -1.96820  -1.68813
H    -1.88713  -1.32740  -2.51945
H    -3.37096  -0.34919  -2.47973
H    -0.60271   1.97898  -1.88535
26

C     4.14724  -0.79371  -1.40747
N     2.77814  -0.35794  -1.22137
C     2.19754  -0.32567  -0.01147
O     2.76518  -0.64208   1.03617
C     0.76854   0.13080  -0.03520
C    -0.25875   0.48261   0.66482
C    -0.78152   0.73735   2.04610
C    -0.56055  -0.34691   3.05968
O    -1.35764   1.78105   2.28955
N    -1.56844   0.76146  -0.62987
C    -2.31530  -0.44781  -0.59815
C    -2.76121  -1.05006  -1.90424
O    -2.60657  -0.91500   0.48983
N    -0.82281   0.98407  -1.71022
O     0.22187   0.16224  -1.72081
H     4.29934  -1.80547  -1.00753
H     4.85551  -0.11629  -0.90952
H     4.36782  -0.80281  -2.48741
H     2.22136  -0.05544  -2.01442
H     0.50088  -0.56872   3.15497
H    -0.98597  -0.04397   4.04805
H    -1.07183  -1.26621   2.72323
H    -3.34889  -1.96990  -1.68799
H    -1.88757  -1.32808  -2.52032
H    -3.37212  -0.35095  -2.47961
H    -0.60595   1.97885  -1.89036
26

C     4.14725  -0.79364  -1.40890
N     2.77815  -0.35840  -1.22145
C     2.20161  -0.32721  -0.01011
O     2.77310  -0.64513   1.03578
C     0.77813   0.12966  -0.01502
C    -0.24317   0.48091   0.68181
C    -0.78250   0.73803   2.04988
C    -0.56421  -0.34718   3.06346
O    -1.35987   1.78206   2.29088
N    -1.58394   0.76759  -0.64830
C    -2.31573  -0.44870  -0.60125
C    -2.76192  -1.05450  -1.90524
O    -2.60428  -0.91164   0.48820
N    -0.82132   0.98518  -1.70627
O     0.20869   0.16367  -1.74081
H     4.29949  -1.80546  -1.00802
H     4.85555  -0.11627  -0.90997
H     4.36769  -0.80272  -2.48784
H     2.22092  -0.05519  -2.01397
H     0.49979  -0.56851   3.15686
H    -0.98786  -0.04453   4.04895
H    -1.07236  -1.26634   2.72371
H    -3.34828  -1.97160  -1.68785
H    -1.88802  -1.32876  -2.52119
H    -3.37328  -0.35272  -2.47949
H    -0.60919   1.97872  -1.89536
26

C     4.14727  -0.79357  -1.41032
N     2.77816  -0.35887  -1.22153
C     2.20568  -0.32876  -0.00876
O     2.78101  -0.64817   1.03539
C     0.78773   0.12852   0.00515
C    -0.22759   0.47921   0.69880
C    -0.78348   0.73870   2.05366
C    -0.56786  -0.34744   3.06724
O    -1.36211   1.78307   2.29220
N    -1.59944   0.77372  -0.66672
C    -2.31617  -0.44959  -0.60434
C    -2.76263  -1.05893  -1.90625
O    -2.60200  -0.90828   0.48656
N    -0.81984   0.98630  -1.70232
O     0.19552   0.16509  -1.76081
H     4.29963  -1.80544  -1.00851
H     4.85559  -0.11626  -0.91043
H     4.36756  -0.80262  -2.48828
H     2.22048  -0.05495  -2.01352
H     0.49870  -0.56830   3.15876
H    -0.98975  -0.04509   4.04985
H    -1.07288  -1.26646   2.72419
H    -3.34766  -1.97331  -1.68771
H    -1.88846  -1.32944  -2.52206
H    -3.37444  -0.35448  -2.47938
H    -0.61243   1.97859  -1.90036
26

C     4.14729  -0.79350  -1.41174
N     2.77817  -0.35934  -1.22160
C     2.20975  -0.33030  -0.00741
O     2.78893  -0.65122   1.03500
C     0.79733   0.12738   0.02533
C    -0.21200   0.47752   0.71580
C    -0.78446   0.73938   2.05745
C    -0.57152  -0.34770   3.07101
O    -1.36435   1.78408   2.29352
N    -1.61493   0.77985  -0.68515
C    -2.31660  -0.45048  -0.60744
C    -2.76334  -1.06337  -1.90726
O    -2.59972  -0.90491   0.48493
N    -0.81835   0.98742  -1.69836
O     0.18234   0.16652  -1.78081
H     4.29978  -1.80543  -1.00900
H     4.85564  -0.11625  -0.91088
H     4.36742  -0.80253  -2.48872
H     2.22003  -0.05470  -2.01307
H     0.49761  -0.56809   3.16066
H    -0.99164  -0.04564   4.05074
H    -1.07340  -1.26659   2.72468
H    -3.34705  -1.97501  -1.68758
H    -1.88890  -1.33012  -2.52293
H    -3.37560  -0.35625  -2.47926
H    -0.61567   1.97846  -1.90536
26

C     4.14731  -0.79344  -1.41317
N     2.77818  -0.35981  -1.22168
C     2.21382  -0.33185  -0.00605
O     2.79685  -0.65427   1.03462
C     0.80693   0.12624   0.04550
C    -0.19642   0.47582   0.73279
C    -0.78544   0.74006   2.06123
C    -0.57518  -0.34797   3.07479
O    -1.36658   1.78510   2.29484
N    -1.63043   0.78598  -0.70357
C    -2.31703  -0.45136  -0.61053
C    -2.76405  -1.06781  -1.90827
O    -2.59744  -0.90155   0.48329
N    -0.81687   0.98854  -1.69441
O     0.16916   0.16795  -1.80081
H     4.29993  -1.80542  -1.00949
H     4.85568  -0.11624  -0.91133
H     4.36729  -0.80244  -2.48916
H     2.21959  -0.05446  -2.01261
H     0.49652  -0.56788   3.16255
H    -0.99352  -0.04620   4.05164
H    -1.07392  -1.26672   2.72516
H    -3.34643  -1.97671  -1.68744
H    -1.88934  -1.33080  -2.52380
H    -3.37676  -0.35801  -2.47914
H    -0.61891   1.97833  -1.91036
26

C     4.14732  -0.79337  -1.41459
N     2.77819  -0.36027  -1.22176
C     2.21788  -0.33339  -0.00470
O     2.80477  -0.65732   1.03423
C     0.81653   0.12509   0.06568
C    -0.18084   0.47412   0.74978
C    -0.78642   0.74074   2.06501
C    -0.57884  -0.34823   3.07857
O    -1.36882   1.78611   2.29616
N    -1.64593   0.79211  -0.72200
C    -2.31746  -0.45225  -0.61363
C    -2.76476  -1.07225  -1.90927
O    -2.59515  -0.89819   0.48166
N    -0.81539   0.98966  -1.69046
O     0.15599   0.16937  -1.82081
H     4.30007  -1.80541  -1.00998
H     4.85572  -0.11622  -0.91178
H     4.36716  -0.80234  -2.48960
H     2.21915  -0.05422  -2.01216
H     0.49543  -0.56767   3.16445
H    -0.99541  -0.04676   4.05254
H    -1.07445  -1.26685   2.72564
H    -3.34582  -1.97842  -1.68730
H    -1.88979  -1.33148  -2.52467
H    -3.37792  -0.35978  -2.47902
H    -0.62215   1.97820  -1.91536
26

C     4.14734  -0.79330  -1.41602
N     2.77821  -0.36074  -1.22184
C     2.22195  -0.33494  -0.00334
O     2.81268  -0.66037   1.03384
C     0.82612   0.12395   0.08585
C    -0.16526   0.47242   0.76677
C    -0.78740   0.74142   2.06879
C    -0.58250  -0.34850   3.08234
O    -1.37106   1.78712   2.29748
N    -1.66142   0.79824  -0.74043
C    -2.31789  -0.45314  -0.61673
C    -2.76547  -1.07669  -1.91028
O    -2.59287  -0.89482   0.48002
N    -0.81390   0.99078  -1.68651
O     0.14281   0.17080  -1.84081
H     4.30022  -1.80540  -1.01048
H     4.85577  -0.11621  -0.91223
H     4.36703  -0.80225  -2.49004
H     2.21870  -0.05397  -2.01171
H     0.49434  -0.56746   3.16635
H    -0.99730  -0.04732   4.05344
H    -1.07497  -1.26698   2.72613
H    -3.34520  -1.98012  -1.68717
H    -1.89023  -1.33216  -2.52554
H    -3.37908  -0.36154  -2.47890
H    -0.62539   1.97807  -1.92037
26

C     4.14736  -0.79323  -1.41744
N     2.77822  -0.36121  -1.22191
C     2.22602  -0.33649  -0.00199
O     2.82060  -0.66342   1.03345
C     0.83572   0.12281   0.10603
C    -0.14968   0.47073   0.78376
C    -0.78838   0.74210   2.07258
C    -0.58615  -0.34876   3.08612
O    -1.37329   1.78813   2.29881
N    -1.67692   0.80437  -0.75885
C    -2.31832  -0.45402  -0.61982
C    -2.76618  -1.08112  -1.91129
O    -2.59059  -0.89146   0.47839
N    -0.81242   0.99190  -1.68255
O     0.12964   0.17223  -1.86081
H     4.30037  -1.80538  -1.01097
H     4.85581  -0.11620  -0.91268
H     4.36689  -0.80215  -2.49047
H     2.21826  -0.05373  -2.01126
H     0.49325  -0.56725   3.16824
H    -0.99919  -0.04788   4.05434
H    -1.07549  -1.26710   2.72661
H    -3.34459  -1.98182  -1.68703
H    -1.89067  -1.33284  -2.52641
H    -3.38024  -0.36331  -2.47878
H    -0.62864   1.97794  -1.92537
26

C     4.14738  -0.79316  -1.41886
N     2.77823  -0.36168  -1.22199
C     2.23009  -0.33803  -0.00064
O     2.82852  -0.66647   1.03306
C     0.84532   0.12167   0.12620
C    -0.13410   0.46903   0.80075
C    -0.78936   0.74278   2.07636
C    -0.58981  -0.34903   3.08990
O    -1.37553   1.78914   2.30013
N    -1.69242   0.81050  -0.77728
C    -2.31875  -0.45491  -0.62292
C    -2.76689  -1.08556  -1.91230
O    -2.58830  -0.88810   0.47675
N    -0.81093   0.99302  -1.67860
O     0.11646   0.17365  -1.88081
H     4.30051  -1.80537  -1.01146
H     4.85585  -0.11619  -0.91313
H     4.36676  -0.80206  -2.49091
H     2.21782  -0.05349  -2.01081
H     0.49216  -0.56704   3.17014
H    -1.00107  -0.04843   4.05524
H    -1.07602  -1.26723   2.72709
H    -3.34397  -1.98353  -1.68689
H    -1.89111  -1.33352  -2.52728
H    -3.38140  -0.36508  -2.47867
H    -0.63188   1.97781  -1.93037
26

C     4.14739  -0.79309  -1.42029
N     2.77824  -0.36214  -1.22207
C     2.23416  -0.33958   0.00072
O     2.83644  -0.66952   1.03267
C     0.85492   0.12053   0.14638
C    -0.11852   0.46733   0.81775
C    -0.79035   0.74346   2.08014
C    -0.59347  -0.34929   3.09367
O    -1.37776   1.79016   2.30145
N    -1.70791   0.81662  -0.79570
C    -2.31919  -0.45580  -0.62601
C    -2.76760  -1.09000  -1.91331
O    -2.58602  -0.88473   0.47512
N    -0.80945   0.99413  -1.67465
O     0.10329   0.17508  -1.90081
H     4.30066  -1.80536  -1.01195
H     4.85590  -0.11617  -0.91358
H     4.36663  -0.80197  -2.49135
H     2.21737  -0.05324  -2.01035
H     0.49107  -0.56683   3.17204
H    -1.00296  -0.04899   4.05614
H    -1.07654  -1.26736   2.72758
H    -3.34336  -1.98523  -1.68675
H    -1.89156  -1.33420  -2.52815
H    -3.38256  -0.36684  -2.47855
H    -0.63512   1.97768  -1.93537
26

C     4.14741  -0.79302  -1.42171
N     2.77825  -0.36261  -1.22215
C     2.23823  -0.34112   0.00207
O     2.84435  -0.67257   1.03229
C     0.86452   0.11938   0.16655
C    -0.10294   0.46563   0.83474
C    -0.79133   0.74414   2.08392
C    -0.59713  -0.34955   3.09745
O    -1.38000   1.79117   2.30277
N    -1.72341   0.82275  -0.81413
C    -2.31962  -0.45669  -0.62911
C    -2.76831  -1.09444  -1.91431
O    -2.58374  -0.88137   0.47348
N    -0.80796   0.99525  -1.67070
O     0.09011   0.17651  -1.92081
H     4.30081  -1.80535  -1.01244
H     4.85594  -0.11616  -0.91404
H     4.36649  -0.80187  -2.49179
H     2.21693  -0.05300  -2.00990
H     0.48998  -0.56662   3.17393
H    -1.00485  -0.04955   4.05704
H    -1.07706  -1.26749   2.72806
H    -3.34274  -1.98694  -1.68662
H    -1.89200  -1.33488  -2.52902
H    -3.38372  -0.36861  -2.47843
H    -0.63836   1.97755  -1.94037
26

C     4.14743  -0.79295  -1.42313
N     2.77826  -0.36308  -1.22223
C     2.24229  -0.34267   0.00343
O     2.85227  -0.67561   1.03190
C     0.87412   0.11824   0.18672
C    -0.08736   0.46394   0.85173
C    -0.79231   0.74481   2.08771
C    -0.60078  -0.34982   3.10123
O    -1.38224   1.79218   2.30409
N    -1.73891   0.82888  -0.83256
C    -2.32005  -0.45757  -0.63220
C    -2.76902  -1.09888  -1.91532
O    -2.58146  -0.87801   0.47185
N    -0.80648   0.99637  -1.66674
O     0.07693   0.17793  -1.94081
H     4.30096  -1.80533  -1.01293
H     4.85598  -0.11615  -0.91449
H     4.36636  -0.80178  -2.49223
H     2.21648  -0.05275  -2.00945
H     0.48888  -0.56641   3.17583
H    -1.00674  -0.05011   4.05794
H    -1.07758  -1.26762   2.72854
H    -3.34213  -1.98864  -1.68648
H    -1.89244  -1.33556  -2.52989
H    -3.38488  -0.37037  -2.47831
H    -0.64160   1.97742  -1.94538
26

C     4.14745  -0.79288  -1.42456
N     2.77828  -0.36355  -1.22230
C     2.24636  -0.34421   0.00478
O     2.86019  -0.67866   1.03151
C     0.88371   0.11710   0.20690
C    -0.07177   0.46224   0.86872
C    -0.79329   0.74549   2.09149
C    -0.60444  -0.35008   3.10501
O    -1.38447   1.79319   2.30541
N    -1.75440   0.83501  -0.85098
C    -2.32048  -0.45846  -0.63530
C    -2.76973  -1.10331  -1.91633
O    -2.57917  -0.87464   0.47021
N    -0.80500   0.99749  -1.66279
O     0.06376   0.17936  -1.96081
H     4.30110  -1.80532  -1.01342
H     4.85603  -0.11614  -0.91494
H     4.36623  -0.80168  -2.49267
H     2.21604  -0.05251  -2.00900
H     0.48779  -0.56620   3.17773
H    -1.00862  -0.05067   4.05884
H    -1.07811  -1.26775   2.72902
H    -3.34151  -1.99034  -1.68634
H    -1.89288  -1.33624  -2.53076
H    -3.38604  -0.37214  -2.47819
H    -0.64484   1.97729  -1.95038
26

C     4.14746  -0.79281  -1.42598
N     2.77829  -0.36402  -1.22238
C     2.25043  -0.34576   0.00613
O     2.86811  -0.68171   1.03112
C     0.89331   0.11596   0.22707
C    -0.05619   0.46054   0.88571
C    -0.79427   0.74617   2.09527
C    -0.60810  -0.35035   3.10878
O    -1.38671   1.79420   2.30673
N    -1.76990   0.84114  -0.86941
C    -2.32091  -0.45935  -0.63839
C    -2.77044  -1.10775  -1.91734
O    -2.57689  -0.87128   0.46858
N    -0.80351   0.99861  -1.65884
O     0.05058   0.18079  -1.98081
H     4.30125  -1.80531  -1.01391
H     4.85607  -0.11612  -0.91539
H     4.36610  -0.80159  -2.49310
H     2.21560  -0.05227  -2.00855
H     0.48670  -0.56599   3.17962
H    -1.01051  -0.05122   4.05974
H    -1.07863  -1.26787   2.72951
H    -3.34089  -1.99205  -1.68620
H    -1.89333  -1.33692  -2.53163
H    -3.38720  -0.37390  -2.47807
H    -0.64808   1.97716  -1.95538
26

C     4.14748  -0.79274  -1.42740
N     2.77830  -0.36448  -1.22246
C     2.25450  -0.34730   0.00749
O     2.87602  -0.68476   1.03073
C     0.90291   0.11482   0.24725
C    -0.04061   0.45884   0.90271
C    -0.79525   0.74685   2.09905
C    -0.61176  -0.35061   3.11256
O    -1.38894   1.79521   2.30806
N    -1.78540   0.84727  -0.88783
C    -2.32134  -0.46023  -0.64149
C    -2.77115  -1.11219  -1.91834
O    -2.57461  -0.86792   0.46694
N    -0.80203   0.99973  -1.65489
O     0.03741   0.18221  -2.00080
H     4.30140  -1.80530  -1.01441
H     4.85611  -0.11611  -0.91584
H     4.36596  -0.80150  -2.49354
H     2.21515  -0.05202  -2.00809
H     0.48561  -0.56578   3.18152
H    -1.01240  -0.05178   4.06064
H    -1.07915  -1.26800   2.72999
H    -3.34028  -1.99375  -1.68607
H    -1.89377  -1.33760  -2.53251
H    -3.38836  -0.37567  -2.47796
H    -0.65132   1.97703  -1.96038
26

C     4.14750  -0.79267  -1.42883
N     2.77831  -0.36495  -1.22254
C     2.25857  -0.34885   0.00884
O     2.88394  -0.68781   1.03035
C     0.91251   0.11368   0.26742
C    -0.02503   0.45714   0.91970
C    -0.79623   0.74753   2.10283
C    -0.61541  -0.35088   3.11634
O    -1.39118   1.79623   2.30938
N    -1.80089   0.85340  -0.90626
C    -2.32177  -0.46112  -0.64459
C    -2.77186  -1.11663  -1.91935
O    -2.57232  -0.86455   0.46531
N    -0.80054   1.00085  -1.65093
O     0.02423   0.18364  -2.02080
H     4.30154  -1.80529  -1.01490
H     4.85615  -0.11610  -0.91629
H     4.36583  -0.80140  -2.49398
H     2.21471  -0.05178  -2.00764
H     0.48452  -0.56558   3.18341
H    -1.01429  -0.05234   4.06154
H    -1.07967  -1.26813   2.73047
H    -3.33966  -1.99545  -1.68593
H    -1.89421  -1.33828  -2.53338
H    -3.38952  -0.37743  -2.47784
H    -0.65456   1.97690  -1.96538
