10

O 4.678381228 0.475404240 -0.629290213
C 2.639337336 -0.307724703 -0.445152862
N 0.350182200 0.755898878 2.090890607
C -0.118188536 1.815354517 -0.270701529
N -2.038353084 0.655036012 -1.466375751
C -2.620681374 -1.159275168 0.159916845
N -1.204904570 -1.184111649 2.278745126
H 1.767694717 -2.164305012 -0.834652250
H 0.647708146 3.628454061 -0.814926118
H -4.090727766 -2.539928803 -0.164733492

