15

O -0.780529304 5.187169427 0.105334487
C -0.412930726 2.913362212 0.247819931
C -2.359964534 0.961539914 -0.669413332
C -1.429863124 -1.546524497 0.322471294
C 1.696397920 -1.068917025 1.042359230
C 2.347636433 -1.786172459 -1.501967268
C 1.635396503 1.629876972 1.427503423
H -2.564140409 1.011927931 -2.718399754
H -4.184599874 1.458678159 0.151469353
H -2.126065781 -1.976265225 2.211465622
H -1.803936149 -3.175574071 -0.865635274
H 2.215603933 -2.376805679 2.553181717
H 2.977657271 -0.351611948 -2.817086166
H 1.823443433 -3.608150466 -2.278062764
H 2.936940042 2.625020941 2.649146243

