13

N -3.710453813 1.204026566 -0.437713445
C -1.214567194 0.555356531 -0.541987191
C -0.290084412 -1.948488217 0.079530031
N 2.176141520 -2.046128608 -1.124588073
C 2.835608619 0.393238741 -0.389853315
O 3.809638734 0.334368575 1.845082328
C 0.835312559 2.093345305 -0.994395241
H -4.896650699 -0.038862558 0.368354449
H -4.135529998 3.024397795 -0.107806362
H -1.523086375 -3.583607969 -0.105500273
H 3.336695541 -3.278963387 -0.238564261
H 1.725155621 -0.886055806 2.455341317
H 0.922067504 4.116975514 -0.779807296

