11

N -3.483249811 -0.669882910 -0.402680833
C -1.100425222 0.122949153 -0.660618282
C 1.430356078 -1.230220891 0.216515711
N 3.450953674 0.136156525 -0.502332554
N 2.473082009 2.498027131 -0.535895130
C 0.245486497 1.695550113 0.906641065
H -4.705492732 0.209240076 0.763961243
H -4.239635464 -1.850291736 -1.680469267
H 1.404095027 -3.136441396 0.949640800
H 4.800735496 -0.390877396 -1.743174273
H -0.282277689 2.613652122 2.680174223

