12

N 2.054928363 2.380735383 1.560292966
C 0.017200174 -0.327535155 -0.311038489
C -2.424146833 -0.387697516 -1.586268518
C -1.742245114 -2.311235622 0.436410706
C 2.627821931 0.457186581 -0.447049807
N 4.463255902 -0.171519556 -1.654823794
H 2.864574189 2.096786099 3.271907547
H 2.098289018 4.216954177 1.019413400
H -2.381666206 -0.903569126 -3.568805631
H -3.810586224 1.032017496 -1.086065099
H -2.688850617 -2.135121877 2.242343105
H -1.205605734 -4.219378450 -0.082375940

