14

C 3.051297877 0.815808468 0.879246253
C 0.664790098 0.729777969 -0.695726786
C -0.536524276 -1.898558119 -1.325295507
C -2.950057727 -1.010045329 -0.029111873
O -2.300329596 -0.398747897 2.503763036
C -1.826042260 1.434383217 0.601376880
H 2.783440575 -0.205981886 2.649995297
H 3.574335045 2.761499267 1.329769074
H 4.633595853 -0.047618226 -0.125928136
H 0.882937342 1.824952303 -2.432171971
H 0.345404311 -3.545795097 -0.454589890
H -0.750746048 -2.212193299 -3.349347843
H -4.893699779 -1.525576902 -0.399956320
H -2.678401376 3.278095549 0.847977768

