14

C 2.910919326 0.755891225 1.030740494
C 0.675168587 0.707755195 -0.752937753
C -0.459046695 -1.860629123 -1.602873730
C -3.103084819 -0.993038946 -0.824478173
O -2.430507765 -0.258507674 2.383788009
C -1.944430313 1.354561752 0.282754334
H 2.532836037 -0.388184479 2.702480928
H 3.331874226 2.681055534 1.645481253
H 4.596835937 0.002141627 0.109451709
H 1.042226174 1.882473356 -2.410752265
H 0.219001268 -3.567805248 -0.670680904
H -0.399405371 -2.165520805 -3.643607227
H -4.073899812 -1.308353111 1.614336110
H -2.749676517 3.236920704 0.443538337

