13

C 1.844902558 -2.096883609 1.631369080
C -0.004483885 -2.498641009 -0.237294478
H 0.342799569 -3.360410659 -2.073401891
C -2.538979480 -3.447859323 1.030880353
H -2.474706021 -3.596922261 3.066815892
H -3.357304214 -5.039102903 0.043550005
C -2.516481856 -0.959125071 -0.109223694
C -2.691881586 1.402622382 1.461062654
H -4.672889457 1.839669037 1.843821502
H -1.856251195 3.008648270 0.474163805
H -1.704419335 1.165080690 3.249409091
H -3.341979744 -0.834716671 -1.981222336
H 3.643457013 -2.913654893 0.951140543

