18

C 3.679272255 2.402986511 -0.590085936
C 2.158043650 -1.045831564 1.395302509
C 0.153784986 -1.713373670 -0.385565489
C -1.998384772 -3.173387148 0.878406856
C -2.469753540 -0.590924521 -0.098305934
C -2.987677677 1.569529267 1.679859150
H 4.032319525 1.231178132 -2.229680636
H 2.252234007 3.825854928 -0.999411367
H 5.422909719 3.238566410 0.112681515
H 2.830265985 1.407914409 1.285834945
H 3.925681127 -2.013958005 0.914785444
H 0.600871359 -2.373809650 -2.282212282
H -1.856683224 -3.408318126 2.905196517
H -2.726169023 -4.791495453 -0.137275980
H -3.499682586 -0.506652506 -1.868852153
H -4.963722522 1.555852941 2.276646226
H -2.619955322 3.388342550 0.773791221
H -1.804310201 1.437406476 3.360376927

