14

C 2.092026182 -0.659374880 -1.464788438
C 0.316713752 -2.432531491 -0.666796968
C -3.026556675 0.137467352 0.071444346
C -1.126662029 -1.364587524 1.503305591
N 0.178568725 1.161619033 2.201639443
C 1.854842309 1.595638914 0.105153810
C -1.748671411 2.311147201 0.587734456
H 2.960765917 -0.599115199 -3.316084449
H 3.752200471 -0.511955682 0.088537354
H -0.101911456 -4.213257646 -1.560637728
H -4.643805420 -0.366160609 -1.065536759
H -1.608219369 -2.550351607 3.114786759
H 3.153606477 3.171833283 0.162907696
H -2.003469798 4.310979560 0.273345860

