12

O -1.406242625 4.204830639 -2.238485134
C -1.315893382 2.798985707 -0.460958872
C -2.101663161 0.070182709 -0.506214845
C -0.012380087 -1.734550716 0.311422935
C 2.656138683 -1.429369225 -0.584750994
C 2.278431469 -0.896531011 1.757777075
H -3.700088684 -0.111432331 0.801885288
H -2.779732403 -0.394799012 -2.398675139
H -0.714346276 -3.645242407 0.635077575
H 3.924351611 -1.580540285 -2.166298654
H -0.629753177 3.496455576 1.397274041
H 3.012672801 -0.277985119 3.550420353

