9

N -1.564766515 2.528235745 2.466352505
C -2.306461795 0.744846097 1.316664466
N 0.422039981 -1.781343566 0.190817495
C 1.985304485 -0.842443969 -1.605823819
O 4.261588922 -1.085386177 -1.703364849
H -2.704641830 3.906310131 3.142761415
H -2.370056824 -1.116904107 0.253161601
H 1.365850957 -2.599837600 1.648916567
H 0.956501734 0.212326944 -3.097524829

