14

C -4.375400494 1.205315208 1.395339661
C -1.484369005 -1.120809056 -0.965481656
O -1.822814532 0.640850896 0.725447964
C 1.233973944 -1.445036208 -1.425514694
C 3.015336691 0.812128510 -1.358171809
C 3.152049078 -1.079553367 0.685546566
H -5.635746700 0.006278672 0.295985743
H -4.598290478 0.857878421 3.413158206
H -4.713618177 3.196871360 0.993984830
H 1.671063609 -2.892820682 -2.799312573
H 2.157311816 2.619273584 -0.937566792
H 4.489286502 0.847823283 -2.773840577
H 4.725549964 -2.383624378 0.720613402
H 2.389877217 -0.570791625 2.512767146

