21

C -3.215114228 -2.780654041 -0.867441852
C -1.381417878 -0.752143010 -1.720865943
C -2.089894835 1.922830252 -1.266631359
C -0.103083955 3.105494636 1.516529574
C 0.730338272 0.103348366 -0.022026062
C 1.035670166 -1.436128492 2.378219364
C 3.213249276 0.506617754 -1.381388247
H -2.314321601 -4.632105275 -0.689305440
H -4.731247621 -2.952230194 -2.256355764
H -4.093886651 -2.287096789 0.928830512
H -0.657399285 -1.139337801 -3.611711466
H -1.145028126 3.079005665 -2.706534598
H -0.403533855 4.967067602 0.710075967
H 1.839107278 3.171649393 2.255274595
H -1.382502014 2.825005460 3.089763857
H 2.480585885 -0.610856313 3.599787653
H 1.630653517 -3.346145249 1.867626023
H -0.712702044 -1.582385830 3.451013294
H 2.950409329 1.503061193 -3.165062016
H 4.541283261 1.584582221 -0.224092171
H 4.075930852 -1.324784997 -1.790187825

