16

C 3.836948697 1.307608653 -1.102327818
O 2.528215147 -0.655244789 -1.189607880
C -0.828748576 -0.179315715 0.279978610
C -2.474192110 -0.394805361 -2.007639101
C -0.924397933 -2.310001555 2.128765708
C -0.223791969 2.383402278 1.192517737
N -1.990516708 3.209808879 2.337841888
H 3.877015313 2.626616191 -2.704240962
H 1.817766903 3.155014928 0.589208083
H 5.347066921 1.505804338 0.304994105
H -2.117496043 -2.207414144 -2.920089146
H -2.110000350 1.121213230 -3.349932316
H -4.461982907 -0.334404877 -1.457618174
H -2.856204725 -2.618375303 2.784104322
H 0.292492773 -1.965259668 3.749097030
H -0.297656960 -4.022135394 1.166840365

