14

O -1.348514345 -2.440599809 2.499946242
C -0.733819431 -2.314866145 0.040731346
C -1.702781774 1.592895220 -0.628805631
N 0.492839024 3.084966692 -1.203717255
C 1.104771819 0.417095701 -1.310482586
C 3.093439317 -0.507086330 0.468074730
O 3.541812688 0.544560695 2.439146194
H -3.124929789 -2.165054213 2.809125033
H -2.293618801 -2.662734640 -1.267595309
H -2.398325880 1.686023853 1.291171343
H -3.122995352 1.555714859 -2.106791784
H 1.260281898 3.743594318 0.434726204
H 1.241041387 -0.336415715 -3.212617087
H 4.073174327 -2.214994308 -0.197102158

