18

C 5.101594106 1.242016203 0.169184081
O 2.758281498 1.824344511 -0.940910606
C 1.204553799 -0.287297123 -1.261202592
C -0.216716494 -1.146624623 1.147189462
N -2.475582363 0.177961878 0.233300901
C -5.085067695 -0.844549238 0.935250649
C -1.368492454 0.499805518 -2.319763785
H 6.146959096 3.004786388 0.344960301
H 6.185561439 -0.072878932 -1.012318575
H 4.878922423 0.407043530 2.053207050
H 2.199490579 -1.786228433 -2.283366375
H -0.527472734 -3.189357488 1.222143408
H 0.501502473 -0.478548669 2.959390196
H -3.612930717 1.225530345 1.715372282
H -5.086479282 -2.910855207 0.896270758
H -6.404534852 -0.038145445 -0.423596529
H -1.477291130 2.411212527 -3.070536800
H -2.203203154 -0.859178874 -3.633354045

