12

C -3.230160473 0.756066912 -1.018946846
C -1.312512436 1.237618621 1.025731945
H -1.373514628 3.144945806 1.827232353
C -0.059058042 -0.844833169 2.405683434
H 0.461333170 -1.189965718 4.346356197
N 1.283759365 0.381706082 0.689394861
C 3.313118014 1.023356125 -0.503310544
H 5.087904589 0.148432318 0.000568694
H 3.159769743 2.351803808 -2.042593819
H -5.127442403 0.838535411 -0.211799484
H -3.116486039 2.170712204 -2.518996231
H -2.953769357 -1.118951833 -1.826810263

