11

C -0.315351449 -2.450238527 0.113510160
O -1.405357685 -1.453637731 -2.048705987
C -1.400404561 2.263158513 0.174817846
C 1.184568509 1.875299048 0.225417379
C 1.833356634 -0.647774815 0.087731820
H -1.490821720 -2.357697165 1.835310856
H 0.279019933 -4.425955562 -0.109515714
H -2.737680970 1.065729170 1.140835220
H -2.165193089 4.000506156 -0.601827296
H 2.485805554 3.350173464 -0.330732969
H 3.712367879 -1.233047657 -0.485977731

