9

C -4.196414271 -0.918773976 -1.653814548
C -2.332200338 0.086274898 0.279037980
O -0.075213065 -1.345718212 0.382301459
H 0.717483467 -1.290100416 -1.246235867
H -1.914710761 2.083472412 -0.096906875
H -3.140380587 -0.020531931 2.173604014
H -5.949428991 0.170025066 -1.616140723
H -3.421419031 -0.793585856 -3.565551522
H -4.642161226 -2.894531262 -1.267446001

