16

C -4.208924353 -1.225969215 -0.183128332
C -2.237689559 0.696488421 -0.788640878
C 1.069890347 -1.149420889 0.374238281
O 0.352196648 -0.788635057 -2.390625529
C 3.057185432 0.738403283 0.959974314
O 4.935134424 0.770112094 -1.032510166
H -6.073119427 -0.365607146 -0.466927099
H -4.076066232 -2.821494122 -1.479194217
H -4.023780817 -1.919833695 1.740444961
H -2.688841867 1.708337455 -2.536193854
H -1.791527508 2.026743174 0.699862867
H 1.827322814 -3.068215045 0.507158178
H 1.724653313 0.141457584 -3.193785229
H 3.927051670 0.231284941 2.767601495
H 2.290106783 2.667094899 1.129390264
H 5.935054241 2.272826711 -0.885531388

