13

C 4.043899994 1.793034659 0.493697640
C 2.697376929 -0.684749839 0.067731507
O 0.838406550 -0.967829811 1.981769525
C -0.524135024 -3.124520040 1.893290923
C -2.348065628 -3.637960801 3.527351654
H -2.834528262 -2.330191011 5.022131878
H -3.374922470 -5.395200759 3.378321219
H -0.022277830 -4.427728579 0.382763970
H 4.028436044 -2.270663674 0.155498968
H 1.784686189 -0.715008190 -1.792595336
H 4.957655840 1.812467884 2.340692257
H 2.713059501 3.364255704 0.409436906
H 5.484670768 2.078174829 -0.953518386

