17

C 4.235785827 -0.952137563 1.350493323
O 1.615577735 -1.038248263 0.906642841
C 0.962324434 -0.100528346 -1.507059362
C -1.866708297 -0.108766721 -1.877419226
C -3.576651263 -0.783310735 0.274036328
C -3.619219877 2.066332766 0.381638940
O -1.844991243 3.077702869 1.932724461
H 5.266131860 -2.121641497 -0.015172611
H 4.563734643 -1.686523988 3.244270605
H 4.956189998 0.988529512 1.238451121
H 1.718184610 1.826809488 -1.702086846
H 1.850198081 -1.262759367 -2.979440927
H -2.511560216 -0.654441485 -3.747178259
H -5.348767372 -1.655481173 -0.270955319
H -2.687817220 -1.744393732 1.853405513
H -2.776188713 2.238967373 -1.950228012
H -0.799639273 1.788300177 2.708779517

