15

C 5.668752467 0.958770691 -0.141123141
C 3.243825782 -0.060231638 0.631851964
C 1.222941194 -0.914298859 1.262965139
C -1.099914807 -1.892000599 2.006638945
C -3.459367604 -1.536224148 0.649187971
O -5.515275525 -2.620302295 1.281746107
C -3.751146098 1.531676560 0.528246123
H 7.113314637 0.599395861 1.282939752
H 5.523945797 2.994848771 -0.438893768
H 6.268197499 0.102321470 -1.919963481
H -1.151233230 -3.006958647 3.736622287
H -2.831584125 -1.818091917 -1.382389141
H -5.358593589 1.810960148 -0.716907800
H -4.217206304 2.177996078 2.422092228
H -2.067388065 2.469419644 -0.189966306

