17

C -3.461384055 -0.246818131 -0.504493702
C -4.283183900 2.448456818 0.128569690
C -1.657501479 1.634900771 0.410935100
C 3.297183522 -3.428027082 -1.634856419
C 2.369129895 -2.173823147 0.319643300
C 2.939922804 0.532328838 0.917770720
C 0.672085613 2.247842415 1.017799423
H -3.385008921 -0.792474244 -2.476942739
H -4.056105244 -1.740182912 0.765384207
H -4.762330119 3.691931114 -1.427234232
H -5.413907441 2.721776222 1.814841097
H 2.840710104 -5.396679205 -1.962015481
H 4.551407166 -2.528211367 -2.985393206
H 1.108496696 -3.140044669 1.622401102
H 4.293602017 1.277148630 -0.459699029
H 3.899176887 0.626904018 2.753064644
H 1.038278593 4.171681782 1.639786431

