17

C -3.286259450 -0.981086372 -0.083717910
C -3.421478992 1.741441923 -0.881395873
C -0.917902774 0.573335442 -0.230798941
C 1.488958035 -1.640284563 -1.852406415
C 2.797290491 -1.859020796 0.422233678
C 3.509742713 0.675063027 1.381665924
C 0.822089427 1.568477086 1.491474715
H -3.657847428 -2.426906967 -1.485884565
H -3.926412281 -1.456901363 1.802829147
H -3.779564234 2.109259142 -2.864360499
H -4.237440226 3.126020293 0.390098224
H 0.497457836 -3.258045631 -2.623474219
H 2.251663725 -0.372100926 -3.282370545
H 2.482906431 -3.411551826 1.715284183
H 4.684772509 1.788208299 0.082556409
H 4.408733864 0.693178282 3.237721740
H 0.279835917 3.096435005 2.760927738

