14

C 3.426216289 -0.619661945 0.074149811
C 0.765194479 1.855024838 -0.521872360
C -1.383917268 0.500603039 -2.010367960
C -3.154974696 0.713664312 0.218870461
C -1.631796820 -1.631700727 -0.204158168
N 0.341711087 -0.817760329 1.662283469
C -0.873345867 1.647527977 1.776642249
H 4.065195469 -0.217365577 -1.840239035
H 3.565442995 -2.661523684 0.349848210
H 4.604870126 0.360223090 1.432183330
H -1.765590715 0.490424332 -4.014227306
H -5.169750442 0.969345163 0.354247209
H -2.168337140 -3.578696646 -0.499947890
H -0.747487575 2.772286636 3.484568273

