20

C 5.741086516 0.124657863 0.034109727
C 2.981344713 -0.611468074 0.376115082
C 1.252756763 0.841613548 -1.391529992
N -1.384179656 0.147038645 -0.973224015
C -3.493897379 1.862640302 -1.563904176
C -2.896539360 1.402393838 1.128676609
C -4.597706458 -0.526048806 2.349283065
H 6.028311337 2.130096925 0.428567983
H 6.385539570 -0.236749519 -1.894446887
H 6.955420838 -0.945353711 1.309627447
H 2.752627607 -2.643306989 0.049399860
H 2.363519714 -0.235620596 2.310477936
H 1.736403441 0.499775339 -3.375814100
H 1.380179125 2.863700720 -1.020008475
H -5.033275442 0.881337216 -2.536503731
H -2.933150517 3.614013454 -2.478194796
H -1.778104519 -1.686057584 -1.393559841
H -6.198165307 0.449809034 3.212481027
H -5.396185344 -1.946893344 1.027034307
H -3.630196918 -1.543669291 3.862897660

