20

C 5.964565414 -0.003141896 -0.448881972
C 3.290544479 -1.005447852 -0.095123994
C 1.316944750 0.806049923 -1.117097161
N -1.252655266 -0.226497981 -0.818790796
C -3.145381955 1.735429911 -1.290866417
C -3.322394339 1.391287653 1.492129203
C -5.394699717 -0.450169556 2.148786789
H 6.222617985 1.796392721 0.529521669
H 6.387701190 0.303939374 -2.446613466
H 7.361550440 -1.326355303 0.289632541
H 3.072933956 -2.832483767 -1.033454897
H 2.926333444 -1.329779373 1.916583082
H 1.581343532 1.107014489 -3.146204798
H 1.474583001 2.655475616 -0.186866683
H -4.707536471 1.048647709 -2.442009261
H -2.379703347 3.510924378 -1.993772895
H -1.269667507 -0.083189712 1.430266411
H -7.100111139 0.716146089 2.305550777
H -5.766701791 -1.888295640 0.704752647
H -5.104354788 -1.359338602 3.973860923

