13

C -3.076036829 -2.184233289 -0.935320267
C 0.870017965 0.974670468 0.827167499
C 3.277837186 0.407882417 -0.512035334
O 1.114282943 1.014606693 3.376433873
C -1.142841448 2.138969416 -0.329923845
N -3.097892589 2.423631939 -1.357841315
H -4.081238658 -3.940847276 -1.284105184
H -3.303421319 -1.335177357 0.880933117
H -1.754525178 -1.573027547 -2.332864803
H 4.670108650 1.891652455 -0.144812056
H 2.972998643 0.270069151 -2.541106084
H 4.049746391 -1.370933886 0.184219384
H -0.461554910 1.470662519 4.156737468

