9

C 3.765115010 1.048412438 -0.569005021
C 4.097442832 1.229122356 2.247783532
H 4.451866769 -0.632442881 3.065785141
H 2.414117376 2.005289737 3.144728695
H 5.695997820 2.441346062 2.733021982
C 1.726491412 1.768745764 -1.755666742
N -0.260089545 2.250433400 -2.830214924
H -0.421908777 4.057487975 -3.463413129
H 5.282470489 0.292205705 -1.718287449

