13

N -3.402441928 1.592387319 0.056571257
C -0.907460904 0.807621665 0.024896065
C -0.111978103 -1.716629725 0.163452560
O -1.606843194 -3.806515055 -0.047446204
N 2.591925222 -1.874343924 -0.237513176
C 3.307054336 0.566719586 -0.427851304
C 1.283288955 2.234083263 -0.318848935
H -3.720966605 3.280201611 0.869859171
H -4.628222568 0.260808265 0.641480610
H -1.262034733 -4.608647594 -1.640671635
H 1.580297796 -2.065931124 1.890130942
H 5.293865462 1.027175545 -0.520726714
H 1.391270646 4.269402826 -0.446478599

