16

C -0.793515067 2.338372410 -2.416470822
C -0.277450629 0.178629140 -0.634436278
C -2.510780250 -1.519596013 -0.170072724
C 2.280689805 -0.782623442 -0.565360760
C 2.505015244 -1.287406271 2.108698442
O 3.155190200 -3.205282040 0.455366208
H 0.826376195 3.595720905 -2.592979935
H -2.409178974 3.448520916 -1.780153795
H -1.241217793 1.582088103 -4.293356541
H 0.497816147 1.919010454 1.903094803
H -3.931936934 -0.585512761 0.993334084
H -1.973927540 -3.291008407 0.730273228
H -3.400730309 -1.968152272 -1.983778134
H 3.782492535 0.270387891 -1.473717242
H 2.202617376 1.396206516 2.787808072
H 0.877515094 -1.838371154 3.250963637

