13

N 3.674334041 1.506209893 -0.398596076
C 1.138819487 0.812703100 -0.141600164
C -0.016705689 -1.383501415 0.267015297
O 1.180720970 -3.601473251 0.769656216
C -2.808138426 -0.940113160 0.159883850
C -3.151925963 1.863121729 -0.371079453
N -0.803765376 2.658494869 -0.508085618
H 4.766262148 -0.012981190 -0.772147953
H 4.365543399 2.400295352 1.143052417
H 0.011553918 -4.971326326 0.584177953
H -3.777195236 -2.001525062 -1.331366800
H -3.768850451 -1.416875679 1.930131965
H -0.345251035 4.463038395 -0.918127047

