10

O 4.138482223 -0.917310459 -1.398187346
C 2.614252941 -0.529737778 0.152917980
O 2.989472293 0.662953228 2.575999366
C 0.520225426 0.887421889 3.043626647
C -2.008106563 0.540725099 -1.249755236
C -0.207376693 -0.599543997 0.663486112
H -1.443728990 2.456056843 -1.758918848
H -3.907244222 0.618301002 -0.457353123
H -2.059197670 -0.595528971 -2.967047801
H -0.796434165 -2.498333890 1.235960443

