16

C 4.428456690 0.215497526 1.880194951
C 2.491656260 -1.507356257 0.666572072
C 1.321956588 -0.907745761 -1.846993597
C -0.132933219 -0.617154543 0.086269399
C -2.589900248 0.110299459 1.190053194
C -4.469011120 1.069047170 -0.768638315
H 4.076192144 2.184612519 1.368081004
H 4.375386378 0.072477573 3.941257044
H 6.344728346 -0.266119378 1.276083902
H 1.621423773 -0.798683241 -3.855689829
H 2.745924182 -3.497264360 1.160846381
H -2.251464246 1.546716682 2.640176998
H -3.358254292 -1.524184401 2.200545613
H -4.846932024 -0.375400576 -2.191449851
H -6.260460922 1.587131971 0.110854717
H -3.726897246 2.730685147 -1.738856306

