16

C 5.238870539 0.444871765 0.732542317
C 3.620972635 -1.813526982 -0.063319261
C 0.918005254 -1.377844028 0.316951007
C -1.289495382 -0.982457614 0.650062177
C -3.979741997 -0.461559200 1.014127345
C -4.874795828 1.862409113 -0.451878378
H 4.728802598 2.124789138 -0.347372612
H 4.966155091 0.868951498 2.731051395
H 7.238666256 0.052150791 0.416988554
H 3.957035558 -2.249536328 -2.055069791
H 4.186107365 -3.492308591 1.000717660
H -4.346488119 -0.202698298 3.031168514
H -5.068162488 -2.119752754 0.434793440
H -4.570755845 1.611410285 -2.474931938
H -6.885360301 2.191864041 -0.132001830
H -3.839815355 3.543237183 0.141447833

