12

O 3.371728493 -0.752560261 -2.065280869
C 1.193055458 -0.603603639 -0.945424273
C 0.591863262 -0.452247348 1.938881624
C -1.627763672 1.241940784 1.233646889
O -0.558473917 3.349206435 -0.037320031
C -1.062365666 1.156049764 -1.480814203
H 1.583384040 -2.644517264 -2.247707054
H -0.111861015 -2.902230365 -1.544306167
H 0.112370051 -2.272155481 2.768503820
H 2.075140477 0.471930943 3.025371684
H -3.424795196 1.495446107 2.169691601
H -2.224525104 1.326118331 -3.154741768

