15

C -5.113431123 -0.554967795 -0.048865426
O -3.151155181 1.234780536 0.348361619
C -0.776348833 0.488421940 -0.115579354
O -0.605031931 -1.361375897 -1.843073983
C 1.189948314 1.564581832 1.053287478
C 3.872715430 0.992740691 0.388366913
O 4.143233826 -1.651006793 -0.191026405
H -4.756660204 -2.295183041 1.002589188
H -6.825101148 0.337403740 0.657808694
H -5.334503228 -1.001667795 -2.047871446
H 0.803121887 2.949325855 2.500346430
H 1.114719999 -2.013279480 -1.736195741
H 4.507164747 2.092652135 -1.255226163
H 5.100876936 1.478218362 1.978843473
H 5.760088468 -1.917849860 -0.962742574

