21

C 5.088063610 1.180406766 -1.006842224
C 2.778021275 -0.140049153 -1.825624007
C -1.287448847 -3.462438352 0.965853535
C -1.701998142 -1.303196898 -0.900034771
C -4.362093402 -0.216350360 -0.659363882
C 0.398801773 0.707383316 -0.653472453
C 0.430598154 2.112104522 1.880431847
H 5.183510350 1.837162580 0.956574905
H 6.796428958 0.148019640 -1.515923916
H 5.091601026 2.880283105 -2.213773904
H 0.595049302 -4.280446159 0.737221694
H -2.670008951 -4.964300646 0.664527483
H -1.484733042 -2.826951046 2.922260952
H -1.481859279 -2.071945914 -2.804828476
H -4.757563323 0.456196762 1.252707196
H -4.660811821 1.358135111 -1.962420260
H -5.769353984 -1.661704703 -1.094330289
H 0.006588776 2.104994295 -2.183610719
H 1.578216905 3.820718690 1.793626502
H 1.195149729 0.921090383 3.382385471
H -1.466664331 2.683888177 2.444903887

