13

C 4.782108220 -1.338244893 0.375325781
C 2.509787483 -0.434509603 0.989272212
C 1.367662222 1.756250063 1.771881254
C -0.844001935 2.749403943 1.359206359
C -2.472167797 1.362446880 -0.589172688
O -1.435612143 -0.989983259 -1.256707444
C 0.049405472 -2.150474504 0.577000962
H 4.804884389 -2.716807981 -1.163135406
H -1.709648340 4.218418658 2.486459815
H -4.324424659 1.096371552 0.303935500
H -2.724020461 2.409781211 -2.346006091
H 0.593798719 -3.978738231 -0.179176348
H -0.895295319 -2.347325158 2.404643801

