26

C     6.16229  -0.25271   0.95557
N     5.03285  -0.41876   0.08084
C     3.98109   0.41993   0.11536
O     3.83784   1.35418   0.90703
C     2.99155   0.05990  -0.87624
N     2.47473   0.09194  -1.95458
N     1.87683   0.18948  -3.05037
C    -0.17504   0.96886  -1.02836
C    -0.87595  -0.41113  -1.11587
O     0.09618  -1.28253  -0.52953
C     0.29824  -0.49964   0.65275
C    -1.17341  -0.43812   1.17634
C    -1.56320  -0.25740   2.51176
N    -1.86274  -0.11852   3.63189
C    -1.89732  -0.36626   0.04264
Br   -3.70701   0.01834  -0.19144
C     0.52639   0.91510   0.06502
H     5.81980  -0.22085   1.98034
H     6.80032  -1.10711   0.77642
H     6.68363   0.67513   0.70406
H     4.98784  -1.12208  -0.66290
H     1.80526  -0.58114  -3.56044
H    -0.26901   1.74284  -1.77552
H    -1.23589  -0.79131  -2.08813
H     1.03854  -0.97754   1.33176
H     1.24477   1.62238   0.51352
26

C     6.15779  -0.25262   0.95128
N     5.02569  -0.41702   0.07758
C     3.97421   0.42154   0.11718
O     3.83756   1.35530   0.91075
C     2.97169   0.06912  -0.86604
N     2.48134   0.08755  -1.95441
N     1.86299   0.19544  -3.03372
C    -0.16249   0.96057  -1.03838
C    -0.87315  -0.41297  -1.11785
O     0.09512  -1.28713  -0.52911
C     0.30134  -0.50267   0.65158
C    -1.16981  -0.43251   1.17457
C    -1.56118  -0.25530   2.51036
N    -1.86233  -0.11909   3.63016
C    -1.89422  -0.36090   0.04089
Br   -3.70464   0.01855  -0.19150
C     0.54629   0.90495   0.05755
H     5.81897  -0.22114   1.97926
H     6.79882  -1.10714   0.77458
H     6.68237   0.67515   0.70293
H     4.98492  -1.12219  -0.66317
H     1.79640  -0.57842  -3.55725
H    -0.26923   1.74280  -1.77390
H    -1.23591  -0.79236  -2.08817
H     1.03825  -0.97954   1.33188
H     1.24233   1.62258   0.51441
26

C     6.15329  -0.25252   0.94700
N     5.01853  -0.41529   0.07433
C     3.96734   0.42316   0.11900
O     3.83728   1.35642   0.91447
C     2.95183   0.07834  -0.85584
N     2.48795   0.08316  -1.95424
N     1.84915   0.20141  -3.01706
C    -0.14995   0.95228  -1.04840
C    -0.87034  -0.41482  -1.11984
O     0.09407  -1.29174  -0.52870
C     0.30445  -0.50570   0.65042
C    -1.16622  -0.42690   1.17279
C    -1.55915  -0.25320   2.50896
N    -1.86192  -0.11967   3.62844
C    -1.89111  -0.35554   0.03913
Br   -3.70228   0.01877  -0.19156
C     0.56618   0.89480   0.05009
H     5.81815  -0.22142   1.97817
H     6.79732  -1.10716   0.77275
H     6.68112   0.67517   0.70179
H     4.98200  -1.12231  -0.66345
H     1.78753  -0.57571  -3.55406
H    -0.26946   1.74276  -1.77229
H    -1.23592  -0.79341  -2.08821
H     1.03797  -0.98155   1.33200
H     1.23989   1.62278   0.51531
26

C     6.14879  -0.25243   0.94272
N     5.01137  -0.41356   0.07107
C     3.96046   0.42477   0.12082
O     3.83701   1.35753   0.91820
C     2.93197   0.08756  -0.84564
N     2.49456   0.07878  -1.95407
N     1.83531   0.20737  -3.00041
C    -0.13740   0.94398  -1.05842
C    -0.86753  -0.41666  -1.12182
O     0.09301  -1.29634  -0.52828
C     0.30755  -0.50873   0.64925
C    -1.16262  -0.42129   1.17101
C    -1.55712  -0.25109   2.50755
N    -1.86151  -0.12024   3.62672
C    -1.88801  -0.35018   0.03738
Br   -3.69991   0.01899  -0.19162
C     0.58607   0.88465   0.04263
H     5.81733  -0.22170   1.97708
H     6.79582  -1.10719   0.77091
H     6.67986   0.67518   0.70065
H     4.97908  -1.12242  -0.66372
H     1.77867  -0.57300  -3.55087
H    -0.26968   1.74272  -1.77067
H    -1.23593  -0.79446  -2.08825
H     1.03769  -0.98355   1.33213
H     1.23746   1.62298   0.51620
26

C     6.14429  -0.25233   0.93843
N     5.00421  -0.41182   0.06781
C     3.95358   0.42639   0.12263
O     3.83673   1.35865   0.92192
C     2.91211   0.09678  -0.83544
N     2.50117   0.07439  -1.95390
N     1.82147   0.21334  -2.98376
C    -0.12486   0.93569  -1.06844
C    -0.86472  -0.41850  -1.12381
O     0.09195  -1.30095  -0.52786
C     0.31065  -0.51177   0.64809
C    -1.15902  -0.41568   1.16924
C    -1.55510  -0.24899   2.50615
N    -1.86110  -0.12081   3.62500
C    -1.88491  -0.34482   0.03563
Br   -3.69755   0.01920  -0.19168
C     0.60596   0.87450   0.03517
H     5.81651  -0.22199   1.97600
H     6.79432  -1.10721   0.76907
H     6.67860   0.67520   0.69952
H     4.97617  -1.12254  -0.66399
H     1.76981  -0.57029  -3.54768
H    -0.26990   1.74268  -1.76905
H    -1.23594  -0.79551  -2.08829
H     1.03740  -0.98555   1.33225
H     1.23502   1.62319   0.51710
26

C     6.13979  -0.25224   0.93415
N     4.99705  -0.41009   0.06456
C     3.94671   0.42800   0.12445
O     3.83645   1.35976   0.92564
C     2.89225   0.10600  -0.82524
N     2.50779   0.07001  -1.95374
N     1.80763   0.21930  -2.96710
C    -0.11231   0.92740  -1.07846
C    -0.86191  -0.42035  -1.12579
O     0.09089  -1.30555  -0.52744
C     0.31376  -0.51480   0.64692
C    -1.15543  -0.41007   1.16746
C    -1.55307  -0.24689   2.50475
N    -1.86069  -0.12139   3.62327
C    -1.88180  -0.33946   0.03388
Br   -3.69518   0.01942  -0.19174
C     0.62586   0.86434   0.02770
H     5.81569  -0.22227   1.97491
H     6.79282  -1.10724   0.76724
H     6.67735   0.67522   0.69838
H     4.97325  -1.12265  -0.66427
H     1.76095  -0.56757  -3.54450
H    -0.27012   1.74264  -1.76743
H    -1.23596  -0.79656  -2.08833
H     1.03712  -0.98755   1.33238
H     1.23258   1.62339   0.51800
26

C     6.13529  -0.25215   0.92987
N     4.98989  -0.40835   0.06130
C     3.93983   0.42962   0.12627
O     3.83618   1.36088   0.92936
C     2.87238   0.11522  -0.81504
N     2.51440   0.06562  -1.95357
N     1.79379   0.22527  -2.95045
C    -0.09977   0.91910  -1.08848
C    -0.85910  -0.42219  -1.12777
O     0.08984  -1.31016  -0.52703
C     0.31686  -0.51783   0.64576
C    -1.15183  -0.40446   1.16568
C    -1.55104  -0.24479   2.50334
N    -1.86028  -0.12196   3.62155
C    -1.87870  -0.33410   0.03213
Br   -3.69282   0.01963  -0.19181
C     0.64575   0.85419   0.02024
H     5.81487  -0.22256   1.97383
H     6.79132  -1.10726   0.76540
H     6.67609   0.67523   0.69725
H     4.97033  -1.12276  -0.66454
H     1.75208  -0.56486  -3.54131
H    -0.27034   1.74260  -1.76582
H    -1.23597  -0.79761  -2.08838
H     1.03684  -0.98956   1.33250
H     1.23014   1.62359   0.51889
26

C     6.13079  -0.25205   0.92559
N     4.98272  -0.40662   0.05804
C     3.93295   0.43123   0.12809
O     3.83590   1.36199   0.93308
C     2.85252   0.12444  -0.80484
N     2.52101   0.06124  -1.95340
N     1.77995   0.23123  -2.93380
C    -0.08722   0.91081  -1.09850
C    -0.85629  -0.42403  -1.12976
O     0.08878  -1.31476  -0.52661
C     0.31996  -0.52086   0.64460
C    -1.14824  -0.39885   1.16391
C    -1.54902  -0.24268   2.50194
N    -1.85987  -0.12253   3.61983
C    -1.87560  -0.32874   0.03038
Br   -3.69045   0.01985  -0.19187
C     0.66564   0.84404   0.01278
H     5.81405  -0.22284   1.97274
H     6.78982  -1.10729   0.76357
H     6.67483   0.67525   0.69611
H     4.96741  -1.12288  -0.66481
H     1.74322  -0.56215  -3.53812
H    -0.27057   1.74256  -1.76420
H    -1.23598  -0.79866  -2.08842
H     1.03655  -0.99156   1.33262
H     1.22771   1.62379   0.51979
26

C     6.12629  -0.25196   0.92130
N     4.97556  -0.40489   0.05479
C     3.92608   0.43285   0.12991
O     3.83562   1.36311   0.93680
C     2.83266   0.13366  -0.79464
N     2.52762   0.05685  -1.95323
N     1.76612   0.23720  -2.91714
C    -0.07468   0.90252  -1.10852
C    -0.85348  -0.42588  -1.13174
O     0.08772  -1.31937  -0.52619
C     0.32307  -0.52390   0.64343
C    -1.14464  -0.39324   1.16213
C    -1.54699  -0.24058   2.50054
N    -1.85946  -0.12311   3.61810
C    -1.87249  -0.32338   0.02863
Br   -3.68809   0.02006  -0.19193
C     0.68553   0.83389   0.00531
H     5.81323  -0.22313   1.97165
H     6.78832  -1.10731   0.76173
H     6.67358   0.67527   0.69497
H     4.96449  -1.12299  -0.66508
H     1.73436  -0.55944  -3.53493
H    -0.27079   1.74252  -1.76258
H    -1.23599  -0.79970  -2.08846
H     1.03627  -0.99356   1.33275
H     1.22527   1.62399   0.52069
26

C     6.12180  -0.25186   0.91702
N     4.96840  -0.40315   0.05153
C     3.91920   0.43446   0.13173
O     3.83534   1.36422   0.94052
C     2.81280   0.14288  -0.78444
N     2.53423   0.05246  -1.95306
N     1.75228   0.24316  -2.90049
C    -0.06213   0.89423  -1.11854
C    -0.85067  -0.42772  -1.13372
O     0.08666  -1.32397  -0.52577
C     0.32617  -0.52693   0.64227
C    -1.14105  -0.38763   1.16035
C    -1.54497  -0.23848   2.49913
N    -1.85905  -0.12368   3.61638
C    -1.86939  -0.31802   0.02687
Br   -3.68572   0.02028  -0.19199
C     0.70543   0.82374  -0.00215
H     5.81241  -0.22341   1.97057
H     6.78682  -1.10734   0.75989
H     6.67232   0.67528   0.69384
H     4.96158  -1.12311  -0.66536
H     1.72549  -0.55673  -3.53174
H    -0.27101   1.74248  -1.76097
H    -1.23600  -0.80075  -2.08850
H     1.03599  -0.99556   1.33287
H     1.22283   1.62419   0.52158
26

C     6.11730  -0.25177   0.91274
N     4.96124  -0.40142   0.04827
C     3.91233   0.43608   0.13355
O     3.83507   1.36534   0.94424
C     2.79294   0.15210  -0.77424
N     2.54084   0.04808  -1.95289
N     1.73844   0.24913  -2.88384
C    -0.04958   0.88593  -1.12856
C    -0.84786  -0.42956  -1.13571
O     0.08560  -1.32858  -0.52535
C     0.32927  -0.52996   0.64110
C    -1.13745  -0.38202   1.15858
C    -1.54294  -0.23638   2.49773
N    -1.85864  -0.12425   3.61466
C    -1.86629  -0.31266   0.02512
Br   -3.68336   0.02050  -0.19205
C     0.72532   0.81359  -0.00961
H     5.81159  -0.22369   1.96948
H     6.78532  -1.10736   0.75806
H     6.67106   0.67530   0.69270
H     4.95866  -1.12322  -0.66563
H     1.71663  -0.55401  -3.52856
H    -0.27123   1.74244  -1.75935
H    -1.23602  -0.80180  -2.08854
H     1.03570  -0.99757   1.33300
H     1.22040   1.62440   0.52248
26

C     6.11280  -0.25167   0.90846
N     4.95408  -0.39968   0.04502
C     3.90545   0.43769   0.13536
O     3.83479   1.36645   0.94797
C     2.77308   0.16132  -0.76404
N     2.54745   0.04369  -1.95273
N     1.72460   0.25509  -2.86719
C    -0.03704   0.87764  -1.13858
C    -0.84506  -0.43140  -1.13769
O     0.08455  -1.33318  -0.52494
C     0.33237  -0.53299   0.63994
C    -1.13385  -0.37641   1.15680
C    -1.54091  -0.23427   2.49633
N    -1.85823  -0.12483   3.61294
C    -1.86318  -0.30730   0.02337
Br   -3.68099   0.02071  -0.19212
C     0.74521   0.80344  -0.01707
H     5.81076  -0.22398   1.96839
H     6.78382  -1.10739   0.75622
H     6.66981   0.67532   0.69156
H     4.95574  -1.12334  -0.66590
H     1.70777  -0.55130  -3.52537
H    -0.27146   1.74240  -1.75773
H    -1.23603  -0.80285  -2.08858
H     1.03542  -0.99957   1.33312
H     1.21796   1.62460   0.52337
26

C     6.10830  -0.25158   0.90417
N     4.94692  -0.39795   0.04176
C     3.89857   0.43931   0.13718
O     3.83451   1.36757   0.95169
C     2.75322   0.17054  -0.75384
N     2.55407   0.03931  -1.95256
N     1.71076   0.26106  -2.85053
C    -0.02449   0.86935  -1.14860
C    -0.84225  -0.43325  -1.13967
O     0.08349  -1.33779  -0.52452
C     0.33548  -0.53603   0.63877
C    -1.13026  -0.37080   1.15502
C    -1.53889  -0.23217   2.49492
N    -1.85781  -0.12540   3.61121
C    -1.86008  -0.30194   0.02162
Br   -3.67863   0.02093  -0.19218
C     0.76510   0.79329  -0.02454
H     5.80994  -0.22426   1.96731
H     6.78232  -1.10742   0.75438
H     6.66855   0.67534   0.69043
H     4.95282  -1.12345  -0.66618
H     1.69890  -0.54859  -3.52218
H    -0.27168   1.74236  -1.75611
H    -1.23604  -0.80390  -2.08862
H     1.03514  -1.00157   1.33324
H     1.21552   1.62480   0.52427
26

C     6.10380  -0.25148   0.89989
N     4.93976  -0.39622   0.03850
C     3.89170   0.44092   0.13900
O     3.83424   1.36868   0.95541
C     2.73336   0.17976  -0.74364
N     2.56068   0.03492  -1.95239
N     1.69692   0.26702  -2.83388
C    -0.01195   0.86105  -1.15862
C    -0.83944  -0.43509  -1.14166
O     0.08243  -1.34239  -0.52410
C     0.33858  -0.53906   0.63761
C    -1.12666  -0.36519   1.15325
C    -1.53686  -0.23007   2.49352
N    -1.85740  -0.12597   3.60949
C    -1.85697  -0.29658   0.01987
Br   -3.67626   0.02114  -0.19224
C     0.78500   0.78313  -0.03200
H     5.80912  -0.22455   1.96622
H     6.78082  -1.10744   0.75255
H     6.66730   0.67535   0.68929
H     4.94990  -1.12357  -0.66645
H     1.69004  -0.54588  -3.51899
H    -0.27190   1.74232  -1.75450
H    -1.23605  -0.80495  -2.08866
H     1.03486  -1.00358   1.33337
H     1.21309   1.62500   0.52517
26

C     6.09930  -0.25139   0.89561
N     4.93260  -0.39448   0.03525
C     3.88482   0.44254   0.14082
O     3.83396   1.36980   0.95913
C     2.71350   0.18898  -0.73344
N     2.56729   0.03054  -1.95222
N     1.68308   0.27299  -2.81723
C     0.00060   0.85276  -1.16864
C    -0.83663  -0.43693  -1.14364
O     0.08137  -1.34700  -0.52368
C     0.34168  -0.54209   0.63644
C    -1.12307  -0.35957   1.15147
C    -1.53483  -0.22797   2.49212
N    -1.85699  -0.12655   3.60777
C    -1.85387  -0.29122   0.01812
Br   -3.67390   0.02136  -0.19230
C     0.80489   0.77298  -0.03946
H     5.80830  -0.22483   1.96514
H     6.77933  -1.10747   0.75071
H     6.66604   0.67537   0.68815
H     4.94699  -1.12368  -0.66672
H     1.68118  -0.54317  -3.51580
H    -0.27212   1.74227  -1.75288
H    -1.23607  -0.80600  -2.08870
H     1.03457  -1.00558   1.33349
H     1.21065   1.62520   0.52606
26

C     6.09480  -0.25130   0.89133
N     4.92544  -0.39275   0.03199
C     3.87794   0.44415   0.14264
O     3.83368   1.37091   0.96285
C     2.69364   0.19820  -0.72325
N     2.57390   0.02615  -1.95205
N     1.66925   0.27896  -2.80057
C     0.01314   0.84447  -1.17866
C    -0.83382  -0.43878  -1.14563
O     0.08032  -1.35160  -0.52327
C     0.34479  -0.54512   0.63528
C    -1.11947  -0.35396   1.14969
C    -1.53281  -0.22587   2.49071
N    -1.85658  -0.12712   3.60605
C    -1.85077  -0.28586   0.01637
Br   -3.67153   0.02157  -0.19236
C     0.82478   0.76283  -0.04692
H     5.80748  -0.22511   1.96405
H     6.77783  -1.10749   0.74888
H     6.66478   0.67539   0.68702
H     4.94407  -1.12380  -0.66700
H     1.67231  -0.54045  -3.51262
H    -0.27234   1.74223  -1.75126
H    -1.23608  -0.80705  -2.08874
H     1.03429  -1.00758   1.33362
H     1.20821   1.62541   0.52696
26

C     6.09030  -0.25120   0.88704
N     4.91828  -0.39101   0.02873
C     3.87107   0.44576   0.14446
O     3.83341   1.37203   0.96657
C     2.67378   0.20742  -0.71305
N     2.58051   0.02176  -1.95188
N     1.65541   0.28492  -2.78392
C     0.02569   0.83618  -1.18868
C    -0.83101  -0.44062  -1.14761
O     0.07926  -1.35621  -0.52285
C     0.34789  -0.54816   0.63411
C    -1.11587  -0.34835   1.14792
C    -1.53078  -0.22376   2.48931
N    -1.85617  -0.12769   3.60432
C    -1.84766  -0.28050   0.01461
Br   -3.66917   0.02179  -0.19242
C     0.84468   0.75268  -0.05439
H     5.80666  -0.22540   1.96296
H     6.77633  -1.10752   0.74704
H     6.66353   0.67540   0.68588
H     4.94115  -1.12391  -0.66727
H     1.66345  -0.53774  -3.50943
H    -0.27257   1.74219  -1.74965
H    -1.23609  -0.80810  -2.08879
H     1.03401  -1.00958   1.33374
H     1.20578   1.62561   0.52785
26

C     6.08580  -0.25111   0.88276
N     4.91112  -0.38928   0.02548
C     3.86419   0.44738   0.14628
O     3.83313   1.37315   0.97029
C     2.65391   0.21664  -0.70285
N     2.58712   0.01738  -1.95172
N     1.64157   0.29089  -2.76727
C     0.03823   0.82788  -1.19870
C    -0.82820  -0.44246  -1.14959
O     0.07820  -1.36081  -0.52243
C     0.35099  -0.55119   0.63295
C    -1.11228  -0.34274   1.14614
C    -1.52876  -0.22166   2.48791
N    -1.85576  -0.12826   3.60260
C    -1.84456  -0.27514   0.01286
Br   -3.66680   0.02201  -0.19249
C     0.86457   0.74253  -0.06185
H     5.80584  -0.22568   1.96188
H     6.77483  -1.10754   0.74520
H     6.66227   0.67542   0.68474
H     4.93823  -1.12403  -0.66754
H     1.65459  -0.53503  -3.50624
H    -0.27279   1.74215  -1.74803
H    -1.23610  -0.80915  -2.08883
H     1.03372  -1.01159   1.33386
H     1.20334   1.62581   0.52875
26

C     6.08130  -0.25101   0.87848
N     4.90396  -0.38755   0.02222
C     3.85732   0.44899   0.14809
O     3.83285   1.37426   0.97401
C     2.63405   0.22585  -0.69265
N     2.59374   0.01299  -1.95155
N     1.62773   0.29685  -2.75061
C     0.05078   0.81959  -1.20872
C    -0.82539  -0.44430  -1.15158
O     0.07714  -1.36542  -0.52201
C     0.35410  -0.55422   0.63178
C    -1.10868  -0.33713   1.14436
C    -1.52673  -0.21956   2.48651
N    -1.85535  -0.12884   3.60088
C    -1.84146  -0.26978   0.01111
Br   -3.66444   0.02222  -0.19255
C     0.88446   0.73238  -0.06931
H     5.80502  -0.22597   1.96079
H     6.77333  -1.10757   0.74337
H     6.66101   0.67544   0.68361
H     4.93531  -1.12414  -0.66781
H     1.64572  -0.53232  -3.50305
H    -0.27301   1.74211  -1.74641
H    -1.23612  -0.81020  -2.08887
H     1.03344  -1.01359   1.33399
H     1.20090   1.62601   0.52965
26

C     6.07680  -0.25092   0.87419
N     4.89679  -0.38581   0.01896
C     3.85044   0.45061   0.14991
O     3.83258   1.37538   0.97774
C     2.61419   0.23507  -0.68245
N     2.60035   0.00861  -1.95138
N     1.61389   0.30282  -2.73396
C     0.06333   0.81130  -1.21874
C    -0.82258  -0.44615  -1.15356
O     0.07609  -1.37002  -0.52159
C     0.35720  -0.55725   0.63062
C    -1.10509  -0.33152   1.14259
C    -1.52470  -0.21746   2.48510
N    -1.85494  -0.12941   3.59916
C    -1.83835  -0.26442   0.00936
Br   -3.66207   0.02244  -0.19261
C     0.90435   0.72223  -0.07677
H     5.80420  -0.22625   1.95970
H     6.77183  -1.10759   0.74153
H     6.65976   0.67545   0.68247
H     4.93240  -1.12425  -0.66809
H     1.63686  -0.52961  -3.49986
H    -0.27323   1.74207  -1.74479
H    -1.23613  -0.81125  -2.08891
H     1.03316  -1.01559   1.33411
H     1.19846   1.62621   0.53054
26

C     6.07230  -0.25082   0.86991
N     4.88963  -0.38408   0.01571
C     3.84356   0.45222   0.15173
O     3.83230   1.37649   0.98146
C     2.59433   0.24429  -0.67225
N     2.60696   0.00422  -1.95121
N     1.60005   0.30878  -2.71731
C     0.07587   0.80300  -1.22876
C    -0.81977  -0.44799  -1.15554
O     0.07503  -1.37463  -0.52118
C     0.36030  -0.56029   0.62945
C    -1.10149  -0.32591   1.14081
C    -1.52268  -0.21535   2.48370
N    -1.85453  -0.12998   3.59743
C    -1.83525  -0.25906   0.00761
Br   -3.65971   0.02265  -0.19267
C     0.92425   0.71207  -0.08424
H     5.80338  -0.22653   1.95862
H     6.77033  -1.10762   0.73970
H     6.65850   0.67547   0.68134
H     4.92948  -1.12437  -0.66836
H     1.62800  -0.52689  -3.49668
H    -0.27345   1.74203  -1.74318
H    -1.23614  -0.81230  -2.08895
H     1.03287  -1.01759   1.33424
H     1.19603   1.62642   0.53144
26

C     6.07680  -0.25092   0.87419
N     4.89679  -0.38581   0.01896
C     3.85044   0.45061   0.14991
O     3.83258   1.37538   0.97774
C     2.61419   0.23507  -0.68245
N     2.60035   0.00861  -1.95138
N     1.61389   0.30282  -2.73396
C     0.06333   0.81130  -1.21874
C    -0.82258  -0.44615  -1.15356
O     0.07609  -1.37002  -0.52159
C     0.35720  -0.55725   0.63062
C    -1.10509  -0.33152   1.14259
C    -1.52470  -0.21746   2.48510
N    -1.85494  -0.12941   3.59916
C    -1.83835  -0.26442   0.00936
Br   -3.66207   0.02244  -0.19261
C     0.90435   0.72223  -0.07677
H     5.80420  -0.22625   1.95970
H     6.77183  -1.10759   0.74153
H     6.65976   0.67545   0.68247
H     4.93240  -1.12425  -0.66809
H     1.63686  -0.52961  -3.49986
H    -0.27323   1.74207  -1.74479
H    -1.23613  -0.81125  -2.08891
H     1.03316  -1.01559   1.33411
H     1.19846   1.62621   0.53054
26

C     6.08130  -0.25101   0.87848
N     4.90396  -0.38755   0.02222
C     3.85732   0.44899   0.14809
O     3.83285   1.37426   0.97401
C     2.63405   0.22585  -0.69265
N     2.59374   0.01299  -1.95155
N     1.62773   0.29685  -2.75061
C     0.05078   0.81959  -1.20872
C    -0.82539  -0.44430  -1.15158
O     0.07714  -1.36542  -0.52201
C     0.35410  -0.55422   0.63178
C    -1.10868  -0.33713   1.14436
C    -1.52673  -0.21956   2.48651
N    -1.85535  -0.12884   3.60088
C    -1.84146  -0.26978   0.01111
Br   -3.66444   0.02222  -0.19255
C     0.88446   0.73238  -0.06931
H     5.80502  -0.22597   1.96079
H     6.77333  -1.10757   0.74337
H     6.66101   0.67544   0.68361
H     4.93531  -1.12414  -0.66781
H     1.64572  -0.53232  -3.50305
H    -0.27301   1.74211  -1.74641
H    -1.23612  -0.81020  -2.08887
H     1.03344  -1.01359   1.33399
H     1.20090   1.62601   0.52965
26

C     6.08580  -0.25111   0.88276
N     4.91112  -0.38928   0.02548
C     3.86419   0.44738   0.14628
O     3.83313   1.37315   0.97029
C     2.65391   0.21664  -0.70285
N     2.58712   0.01738  -1.95172
N     1.64157   0.29089  -2.76727
C     0.03823   0.82788  -1.19870
C    -0.82820  -0.44246  -1.14959
O     0.07820  -1.36081  -0.52243
C     0.35099  -0.55119   0.63295
C    -1.11228  -0.34274   1.14614
C    -1.52876  -0.22166   2.48791
N    -1.85576  -0.12826   3.60260
C    -1.84456  -0.27514   0.01286
Br   -3.66680   0.02201  -0.19249
C     0.86457   0.74253  -0.06185
H     5.80584  -0.22568   1.96188
H     6.77483  -1.10754   0.74520
H     6.66227   0.67542   0.68474
H     4.93823  -1.12403  -0.66754
H     1.65459  -0.53503  -3.50624
H    -0.27279   1.74215  -1.74803
H    -1.23610  -0.80915  -2.08883
H     1.03372  -1.01159   1.33386
H     1.20334   1.62581   0.52875
26

C     6.09030  -0.25120   0.88704
N     4.91828  -0.39101   0.02873
C     3.87107   0.44576   0.14446
O     3.83341   1.37203   0.96657
C     2.67378   0.20742  -0.71305
N     2.58051   0.02176  -1.95188
N     1.65541   0.28492  -2.78392
C     0.02569   0.83618  -1.18868
C    -0.83101  -0.44062  -1.14761
O     0.07926  -1.35621  -0.52285
C     0.34789  -0.54816   0.63411
C    -1.11587  -0.34835   1.14792
C    -1.53078  -0.22376   2.48931
N    -1.85617  -0.12769   3.60432
C    -1.84766  -0.28050   0.01461
Br   -3.66917   0.02179  -0.19242
C     0.84468   0.75268  -0.05439
H     5.80666  -0.22540   1.96296
H     6.77633  -1.10752   0.74704
H     6.66353   0.67540   0.68588
H     4.94115  -1.12391  -0.66727
H     1.66345  -0.53774  -3.50943
H    -0.27257   1.74219  -1.74965
H    -1.23609  -0.80810  -2.08879
H     1.03401  -1.00958   1.33374
H     1.20578   1.62561   0.52785
26

C     6.09480  -0.25130   0.89133
N     4.92544  -0.39275   0.03199
C     3.87794   0.44415   0.14264
O     3.83368   1.37091   0.96285
C     2.69364   0.19820  -0.72325
N     2.57390   0.02615  -1.95205
N     1.66925   0.27896  -2.80057
C     0.01314   0.84447  -1.17866
C    -0.83382  -0.43878  -1.14563
O     0.08032  -1.35160  -0.52327
C     0.34479  -0.54512   0.63528
C    -1.11947  -0.35396   1.14969
C    -1.53281  -0.22587   2.49071
N    -1.85658  -0.12712   3.60605
C    -1.85077  -0.28586   0.01637
Br   -3.67153   0.02157  -0.19236
C     0.82478   0.76283  -0.04692
H     5.80748  -0.22511   1.96405
H     6.77783  -1.10749   0.74888
H     6.66478   0.67539   0.68702
H     4.94407  -1.12380  -0.66700
H     1.67231  -0.54045  -3.51262
H    -0.27234   1.74223  -1.75126
H    -1.23608  -0.80705  -2.08874
H     1.03429  -1.00758   1.33362
H     1.20821   1.62541   0.52696
26

C     6.09930  -0.25139   0.89561
N     4.93260  -0.39448   0.03525
C     3.88482   0.44254   0.14082
O     3.83396   1.36980   0.95913
C     2.71350   0.18898  -0.73344
N     2.56729   0.03054  -1.95222
N     1.68308   0.27299  -2.81723
C     0.00060   0.85276  -1.16864
C    -0.83663  -0.43693  -1.14364
O     0.08137  -1.34700  -0.52368
C     0.34168  -0.54209   0.63644
C    -1.12307  -0.35957   1.15147
C    -1.53483  -0.22797   2.49212
N    -1.85699  -0.12655   3.60777
C    -1.85387  -0.29122   0.01812
Br   -3.67390   0.02136  -0.19230
C     0.80489   0.77298  -0.03946
H     5.80830  -0.22483   1.96514
H     6.77933  -1.10747   0.75071
H     6.66604   0.67537   0.68815
H     4.94699  -1.12368  -0.66672
H     1.68118  -0.54317  -3.51580
H    -0.27212   1.74227  -1.75288
H    -1.23607  -0.80600  -2.08870
H     1.03457  -1.00558   1.33349
H     1.21065   1.62520   0.52606
26

C     6.10380  -0.25148   0.89989
N     4.93976  -0.39622   0.03850
C     3.89170   0.44092   0.13900
O     3.83424   1.36868   0.95541
C     2.73336   0.17976  -0.74364
N     2.56068   0.03492  -1.95239
N     1.69692   0.26702  -2.83388
C    -0.01195   0.86105  -1.15862
C    -0.83944  -0.43509  -1.14166
O     0.08243  -1.34239  -0.52410
C     0.33858  -0.53906   0.63761
C    -1.12666  -0.36519   1.15325
C    -1.53686  -0.23007   2.49352
N    -1.85740  -0.12597   3.60949
C    -1.85697  -0.29658   0.01987
Br   -3.67626   0.02114  -0.19224
C     0.78500   0.78313  -0.03200
H     5.80912  -0.22455   1.96622
H     6.78082  -1.10744   0.75255
H     6.66730   0.67535   0.68929
H     4.94990  -1.12357  -0.66645
H     1.69004  -0.54588  -3.51899
H    -0.27190   1.74232  -1.75450
H    -1.23605  -0.80495  -2.08866
H     1.03486  -1.00358   1.33337
H     1.21309   1.62500   0.52517
26

C     6.10830  -0.25158   0.90417
N     4.94692  -0.39795   0.04176
C     3.89857   0.43931   0.13718
O     3.83451   1.36757   0.95169
C     2.75322   0.17054  -0.75384
N     2.55407   0.03931  -1.95256
N     1.71076   0.26106  -2.85053
C    -0.02449   0.86935  -1.14860
C    -0.84225  -0.43325  -1.13967
O     0.08349  -1.33779  -0.52452
C     0.33548  -0.53603   0.63877
C    -1.13026  -0.37080   1.15502
C    -1.53889  -0.23217   2.49492
N    -1.85781  -0.12540   3.61121
C    -1.86008  -0.30194   0.02162
Br   -3.67863   0.02093  -0.19218
C     0.76510   0.79329  -0.02454
H     5.80994  -0.22426   1.96731
H     6.78232  -1.10742   0.75438
H     6.66855   0.67534   0.69043
H     4.95282  -1.12345  -0.66618
H     1.69890  -0.54859  -3.52218
H    -0.27168   1.74236  -1.75611
H    -1.23604  -0.80390  -2.08862
H     1.03514  -1.00157   1.33324
H     1.21552   1.62480   0.52427
26

C     6.11280  -0.25167   0.90846
N     4.95408  -0.39968   0.04502
C     3.90545   0.43769   0.13536
O     3.83479   1.36645   0.94797
C     2.77308   0.16132  -0.76404
N     2.54745   0.04369  -1.95273
N     1.72460   0.25509  -2.86719
C    -0.03704   0.87764  -1.13858
C    -0.84506  -0.43140  -1.13769
O     0.08455  -1.33318  -0.52494
C     0.33237  -0.53299   0.63994
C    -1.13385  -0.37641   1.15680
C    -1.54091  -0.23427   2.49633
N    -1.85823  -0.12483   3.61294
C    -1.86318  -0.30730   0.02337
Br   -3.68099   0.02071  -0.19212
C     0.74521   0.80344  -0.01707
H     5.81076  -0.22398   1.96839
H     6.78382  -1.10739   0.75622
H     6.66981   0.67532   0.69156
H     4.95574  -1.12334  -0.66590
H     1.70777  -0.55130  -3.52537
H    -0.27146   1.74240  -1.75773
H    -1.23603  -0.80285  -2.08858
H     1.03542  -0.99957   1.33312
H     1.21796   1.62460   0.52337
26

C     6.11730  -0.25177   0.91274
N     4.96124  -0.40142   0.04827
C     3.91233   0.43608   0.13355
O     3.83507   1.36534   0.94424
C     2.79294   0.15210  -0.77424
N     2.54084   0.04808  -1.95289
N     1.73844   0.24913  -2.88384
C    -0.04958   0.88593  -1.12856
C    -0.84786  -0.42956  -1.13571
O     0.08560  -1.32858  -0.52535
C     0.32927  -0.52996   0.64110
C    -1.13745  -0.38202   1.15858
C    -1.54294  -0.23638   2.49773
N    -1.85864  -0.12425   3.61466
C    -1.86629  -0.31266   0.02512
Br   -3.68336   0.02050  -0.19205
C     0.72532   0.81359  -0.00961
H     5.81159  -0.22369   1.96948
H     6.78532  -1.10736   0.75806
H     6.67106   0.67530   0.69270
H     4.95866  -1.12322  -0.66563
H     1.71663  -0.55401  -3.52856
H    -0.27123   1.74244  -1.75935
H    -1.23602  -0.80180  -2.08854
H     1.03570  -0.99757   1.33300
H     1.22040   1.62440   0.52248
26

C     6.12180  -0.25186   0.91702
N     4.96840  -0.40315   0.05153
C     3.91920   0.43446   0.13173
O     3.83534   1.36422   0.94052
C     2.81280   0.14288  -0.78444
N     2.53423   0.05246  -1.95306
N     1.75228   0.24316  -2.90049
C    -0.06213   0.89423  -1.11854
C    -0.85067  -0.42772  -1.13372
O     0.08666  -1.32397  -0.52577
C     0.32617  -0.52693   0.64227
C    -1.14105  -0.38763   1.16035
C    -1.54497  -0.23848   2.49913
N    -1.85905  -0.12368   3.61638
C    -1.86939  -0.31802   0.02687
Br   -3.68572   0.02028  -0.19199
C     0.70543   0.82374  -0.00215
H     5.81241  -0.22341   1.97057
H     6.78682  -1.10734   0.75989
H     6.67232   0.67528   0.69384
H     4.96158  -1.12311  -0.66536
H     1.72549  -0.55673  -3.53174
H    -0.27101   1.74248  -1.76097
H    -1.23600  -0.80075  -2.08850
H     1.03599  -0.99556   1.33287
H     1.22283   1.62419   0.52158
26

C     6.12629  -0.25196   0.92130
N     4.97556  -0.40489   0.05479
C     3.92608   0.43285   0.12991
O     3.83562   1.36311   0.93680
C     2.83266   0.13366  -0.79464
N     2.52762   0.05685  -1.95323
N     1.76612   0.23720  -2.91714
C    -0.07468   0.90252  -1.10852
C    -0.85348  -0.42588  -1.13174
O     0.08772  -1.31937  -0.52619
C     0.32307  -0.52390   0.64343
C    -1.14464  -0.39324   1.16213
C    -1.54699  -0.24058   2.50054
N    -1.85946  -0.12311   3.61810
C    -1.87249  -0.32338   0.02863
Br   -3.68809   0.02006  -0.19193
C     0.68553   0.83389   0.00531
H     5.81323  -0.22313   1.97165
H     6.78832  -1.10731   0.76173
H     6.67358   0.67527   0.69497
H     4.96449  -1.12299  -0.66508
H     1.73436  -0.55944  -3.53493
H    -0.27079   1.74252  -1.76258
H    -1.23599  -0.79970  -2.08846
H     1.03627  -0.99356   1.33275
H     1.22527   1.62399   0.52069
26

C     6.13079  -0.25205   0.92559
N     4.98272  -0.40662   0.05804
C     3.93295   0.43123   0.12809
O     3.83590   1.36199   0.93308
C     2.85252   0.12444  -0.80484
N     2.52101   0.06124  -1.95340
N     1.77995   0.23123  -2.93380
C    -0.08722   0.91081  -1.09850
C    -0.85629  -0.42403  -1.12976
O     0.08878  -1.31476  -0.52661
C     0.31996  -0.52086   0.64460
C    -1.14824  -0.39885   1.16391
C    -1.54902  -0.24268   2.50194
N    -1.85987  -0.12253   3.61983
C    -1.87560  -0.32874   0.03038
Br   -3.69045   0.01985  -0.19187
C     0.66564   0.84404   0.01278
H     5.81405  -0.22284   1.97274
H     6.78982  -1.10729   0.76357
H     6.67483   0.67525   0.69611
H     4.96741  -1.12288  -0.66481
H     1.74322  -0.56215  -3.53812
H    -0.27057   1.74256  -1.76420
H    -1.23598  -0.79866  -2.08842
H     1.03655  -0.99156   1.33262
H     1.22771   1.62379   0.51979
26

C     6.13529  -0.25215   0.92987
N     4.98989  -0.40835   0.06130
C     3.93983   0.42962   0.12627
O     3.83618   1.36088   0.92936
C     2.87238   0.11522  -0.81504
N     2.51440   0.06562  -1.95357
N     1.79379   0.22527  -2.95045
C    -0.09977   0.91910  -1.08848
C    -0.85910  -0.42219  -1.12777
O     0.08984  -1.31016  -0.52703
C     0.31686  -0.51783   0.64576
C    -1.15183  -0.40446   1.16568
C    -1.55104  -0.24479   2.50334
N    -1.86028  -0.12196   3.62155
C    -1.87870  -0.33410   0.03213
Br   -3.69282   0.01963  -0.19181
C     0.64575   0.85419   0.02024
H     5.81487  -0.22256   1.97383
H     6.79132  -1.10726   0.76540
H     6.67609   0.67523   0.69725
H     4.97033  -1.12276  -0.66454
H     1.75208  -0.56486  -3.54131
H    -0.27034   1.74260  -1.76582
H    -1.23597  -0.79761  -2.08838
H     1.03684  -0.98956   1.33250
H     1.23014   1.62359   0.51889
26

C     6.13979  -0.25224   0.93415
N     4.99705  -0.41009   0.06456
C     3.94671   0.42800   0.12445
O     3.83645   1.35976   0.92564
C     2.89225   0.10600  -0.82524
N     2.50779   0.07001  -1.95374
N     1.80763   0.21930  -2.96710
C    -0.11231   0.92740  -1.07846
C    -0.86191  -0.42035  -1.12579
O     0.09089  -1.30555  -0.52744
C     0.31376  -0.51480   0.64692
C    -1.15543  -0.41007   1.16746
C    -1.55307  -0.24689   2.50475
N    -1.86069  -0.12139   3.62327
C    -1.88180  -0.33946   0.03388
Br   -3.69518   0.01942  -0.19174
C     0.62586   0.86434   0.02770
H     5.81569  -0.22227   1.97491
H     6.79282  -1.10724   0.76724
H     6.67735   0.67522   0.69838
H     4.97325  -1.12265  -0.66427
H     1.76095  -0.56757  -3.54450
H    -0.27012   1.74264  -1.76743
H    -1.23596  -0.79656  -2.08833
H     1.03712  -0.98755   1.33238
H     1.23258   1.62339   0.51800
26

C     6.14429  -0.25233   0.93843
N     5.00421  -0.41182   0.06781
C     3.95358   0.42639   0.12263
O     3.83673   1.35865   0.92192
C     2.91211   0.09678  -0.83544
N     2.50117   0.07439  -1.95390
N     1.82147   0.21334  -2.98376
C    -0.12486   0.93569  -1.06844
C    -0.86472  -0.41850  -1.12381
O     0.09195  -1.30095  -0.52786
C     0.31065  -0.51177   0.64809
C    -1.15902  -0.41568   1.16924
C    -1.55510  -0.24899   2.50615
N    -1.86110  -0.12081   3.62500
C    -1.88491  -0.34482   0.03563
Br   -3.69755   0.01920  -0.19168
C     0.60596   0.87450   0.03517
H     5.81651  -0.22199   1.97600
H     6.79432  -1.10721   0.76907
H     6.67860   0.67520   0.69952
H     4.97617  -1.12254  -0.66399
H     1.76981  -0.57029  -3.54768
H    -0.26990   1.74268  -1.76905
H    -1.23594  -0.79551  -2.08829
H     1.03740  -0.98555   1.33225
H     1.23502   1.62319   0.51710
26

C     6.14879  -0.25243   0.94272
N     5.01137  -0.41356   0.07107
C     3.96046   0.42477   0.12082
O     3.83701   1.35753   0.91820
C     2.93197   0.08756  -0.84564
N     2.49456   0.07878  -1.95407
N     1.83531   0.20737  -3.00041
C    -0.13740   0.94398  -1.05842
C    -0.86753  -0.41666  -1.12182
O     0.09301  -1.29634  -0.52828
C     0.30755  -0.50873   0.64925
C    -1.16262  -0.42129   1.17101
C    -1.55712  -0.25109   2.50755
N    -1.86151  -0.12024   3.62672
C    -1.88801  -0.35018   0.03738
Br   -3.69991   0.01899  -0.19162
C     0.58607   0.88465   0.04263
H     5.81733  -0.22170   1.97708
H     6.79582  -1.10719   0.77091
H     6.67986   0.67518   0.70065
H     4.97908  -1.12242  -0.66372
H     1.77867  -0.57300  -3.55087
H    -0.26968   1.74272  -1.77067
H    -1.23593  -0.79446  -2.08825
H     1.03769  -0.98355   1.33213
H     1.23746   1.62298   0.51620
26

C     6.15329  -0.25252   0.94700
N     5.01853  -0.41529   0.07433
C     3.96734   0.42316   0.11900
O     3.83728   1.35642   0.91447
C     2.95183   0.07834  -0.85584
N     2.48795   0.08316  -1.95424
N     1.84915   0.20141  -3.01706
C    -0.14995   0.95228  -1.04840
C    -0.87034  -0.41482  -1.11984
O     0.09407  -1.29174  -0.52870
C     0.30445  -0.50570   0.65042
C    -1.16622  -0.42690   1.17279
C    -1.55915  -0.25320   2.50896
N    -1.86192  -0.11967   3.62844
C    -1.89111  -0.35554   0.03913
Br   -3.70228   0.01877  -0.19156
C     0.56618   0.89480   0.05009
H     5.81815  -0.22142   1.97817
H     6.79732  -1.10716   0.77275
H     6.68112   0.67517   0.70179
H     4.98200  -1.12231  -0.66345
H     1.78753  -0.57571  -3.55406
H    -0.26946   1.74276  -1.77229
H    -1.23592  -0.79341  -2.08821
H     1.03797  -0.98155   1.33200
H     1.23989   1.62278   0.51531
26

C     6.15779  -0.25262   0.95128
N     5.02569  -0.41702   0.07758
C     3.97421   0.42154   0.11718
O     3.83756   1.35530   0.91075
C     2.97169   0.06912  -0.86604
N     2.48134   0.08755  -1.95441
N     1.86299   0.19544  -3.03372
C    -0.16249   0.96057  -1.03838
C    -0.87315  -0.41297  -1.11785
O     0.09512  -1.28713  -0.52911
C     0.30134  -0.50267   0.65158
C    -1.16981  -0.43251   1.17457
C    -1.56118  -0.25530   2.51036
N    -1.86233  -0.11909   3.63016
C    -1.89422  -0.36090   0.04089
Br   -3.70464   0.01855  -0.19150
C     0.54629   0.90495   0.05755
H     5.81897  -0.22114   1.97926
H     6.79882  -1.10714   0.77458
H     6.68237   0.67515   0.70293
H     4.98492  -1.12219  -0.66317
H     1.79640  -0.57842  -3.55725
H    -0.26923   1.74280  -1.77390
H    -1.23591  -0.79236  -2.08817
H     1.03825  -0.97954   1.33188
H     1.24233   1.62258   0.51441
