14

C 4.213763998 -0.213355768 -0.464972461
O 1.793387358 -0.405826358 0.611598673
C -0.145499047 -0.635325866 -1.202655607
C -2.578176142 -1.150855361 0.170897288
C -4.805117430 -0.270085705 -0.563354456
H -6.516807978 -0.790455563 0.423570017
H -4.938478710 0.961855461 -2.186178158
O -2.334889739 -2.727107442 2.172882045
H -0.574791589 -2.731559334 2.647245065
H 0.282056874 -2.224757975 -2.474544223
H -0.310953281 1.082989740 -2.344481611
H 4.660838976 -1.879036756 -1.615887915
H 4.369603910 1.476176041 -1.654314154
H 5.566826404 -0.071738501 1.078161603

