16

C 4.579221856 -1.025980728 -1.029090140
O 2.366409162 -0.643236411 0.393693371
C 0.243880173 -0.091127961 -1.078540852
C -2.016736035 0.093748935 0.639551124
C -4.387391789 0.814584134 -0.386940643
O -1.919794426 -1.260083780 2.734655046
H 4.361138353 -2.613631750 -2.343221901
H 5.076802996 0.672875254 -2.103241971
H 6.090564623 -1.448887129 0.299531134
H -0.157625703 -1.648321549 -2.402827208
H 0.459645890 1.662731769 -2.149602149
H -1.029944787 2.963416125 1.908350887
H -6.043463483 0.465624246 0.752482480
H -4.562386570 0.894709901 -2.421130660
H -2.885042361 2.684302783 0.788939492
H -0.154617486 -1.408387180 3.212288880

