11

C -3.062793836 -0.810752752 2.021029984
O -0.926606588 0.786841991 2.057370608
C 1.319548566 -0.440092799 1.655185148
C 3.114859457 0.679920342 0.311372592
O 2.863824667 2.972380608 -0.798471705
H 1.188435437 3.581594428 -0.427863512
H 4.953514240 -0.167571483 0.044400381
H 1.578215733 -2.269475717 2.541177648
H -4.701041369 0.355955540 2.452997698
H -3.307784167 -1.687861706 0.163288948
H -2.894409904 -2.297830736 3.452085053

