13

C 0.818528597 -2.805831713 -0.408900677
C 2.032660813 -0.176636650 -0.924018892
C 0.998961518 2.032851543 -0.290481028
C -1.503480693 2.169567805 1.103139738
N -2.537525449 -0.405700766 0.903114779
C -0.627688047 -1.903146789 1.808256535
H 2.282960311 -4.192568131 -0.003633528
H -0.273627524 -3.387328844 -2.081230365
H 3.886332513 -0.214493231 -1.795185640
H 1.973394996 3.775842268 -0.758676964
H -2.807084620 3.534053719 0.263237262
H -2.914917098 -0.673930817 -0.983553542
H -1.211533711 2.642718453 3.088440992

