13

C 0.892579159 -2.396613561 0.062851856
C 2.040176897 -0.109563411 -1.200174019
C 0.985760931 2.078406850 -0.580562491
C -1.301282681 1.843555070 1.060388143
N -3.104036221 -0.054689203 0.074686720
C -1.508246998 -1.717813676 1.523895556
H 2.241683798 -3.326762139 1.316391363
H 0.323937551 -3.832507671 -1.331944622
H 3.580919852 -0.289192499 -2.536493451
H 1.619197808 3.902195857 -1.256047495
H -2.241554125 3.537980815 1.742048714
H -2.756911201 -0.178848839 -1.817905042
H -0.693447757 0.807282100 2.916365120

