17

C -4.122576190 -1.075310139 0.287272518
C -1.803533751 0.123052446 -0.916123125
O -2.161482914 2.735056235 -1.347718374
C 0.582086404 -0.304529648 0.667221836
C 2.927471021 0.568679837 -0.658591192
C 4.968470969 -0.851821622 -0.936997739
O 0.207060126 1.086290411 2.946168368
H -5.781213168 -0.693458434 -0.872966183
H -3.894767703 -3.120117110 0.456140694
H -4.442267376 -0.303393243 2.173140616
H -1.481247347 -0.713833423 -2.777777311
H -2.103019569 3.543829404 0.280745291
H 0.747657178 -2.329356697 1.091359412
H 2.873383356 2.488375638 -1.383725253
H 1.794625922 1.212949380 3.809539013
H 6.640093484 -0.157540760 -1.892947767
H 5.036660754 -2.775021013 -0.225587473

