15

C -2.788280390 1.593005297 -1.471562785
C -0.604925823 -0.210186300 -0.883764286
C -1.315198833 -2.296476823 0.924391451
C 1.833638543 0.892144881 -0.760877021
O 2.566029852 1.632261636 -2.954846425
C 3.459443382 1.083647157 1.380948130
C 4.741389157 1.198652090 3.244893383
H -3.590582891 2.351610338 0.282470195
H -4.296468618 0.584500907 -2.453108568
H -2.217573330 3.178034551 -2.656509088
H 0.653942919 0.262745820 -3.388958298
H -2.057769094 -1.550526654 2.709916169
H -2.797194795 -3.468858073 0.094822866
H 0.278075013 -3.529229626 1.359455954
H 5.903754821 1.313622158 4.884045565

