14

C -1.664416403 -2.167893886 0.270560725
C -0.793137953 0.503798868 -0.234027992
C -2.932065210 2.344908047 -0.664898852
H -4.156905068 1.685571868 -2.188728929
H -2.194850886 4.203828102 -1.156067471
H -4.067308315 2.516525074 1.049712060
C 1.424383240 1.450219840 1.314094288
H 1.732227770 1.942308718 3.262404171
C 2.761938156 1.388041822 -0.808757107
H 4.656332112 1.789356421 -1.464423002
O 0.940329326 0.533504380 -2.443847493
H -2.888175527 -2.827468189 -1.253988903
H -2.732302753 -2.238136574 2.034908699
H -0.047836829 -3.433280067 0.429202478

