16

C -2.369489774 -2.243377333 -0.286330036
C -0.745049979 0.089648267 -0.195450820
C -2.174785490 2.526498142 0.084997462
C 1.824773044 -0.069312811 1.259093450
C 2.877033891 -0.233414832 -1.214946046
O 0.859413332 0.160865223 -2.585514799
H -3.739981653 -2.122430231 -1.822130262
H -3.398939567 -2.409725294 1.492406275
H -1.226989365 -3.939101925 -0.533808343
H -3.634789670 2.704676298 -1.360111916
H -0.912751910 4.149753059 -0.040579317
H -3.087642129 2.557318989 1.935598338
H 2.878474486 -1.541711195 2.439435454
H 2.196133197 1.626533819 2.352433862
H 4.671567594 -0.838055213 -1.982585925
H 6.063985549 -0.637705787 2.095686713

