11

C -2.568042939 -0.543450481 -0.588742303
C 0.130431448 -1.143946163 -1.219920863
C 2.208648456 0.005929715 0.454947067
O 0.748189362 -2.520383158 -2.912843294
C 1.543810756 2.385088500 1.669701154
N 0.985464244 4.258912579 2.604193891
H -3.818127951 -1.690666154 -1.746282381
H -2.933755759 -0.875812073 1.415732735
H -2.931855072 1.459790755 -0.931939962
H 3.904942630 0.237491387 -0.689075536
H 2.640234256 -1.387663480 1.920014542

