14

C -3.782490759 0.881857326 0.245027332
C -1.405533770 -0.672619101 0.247410352
C -0.542791515 -2.032963132 2.344462411
C 3.764588741 -0.024808060 -0.389983177
C 1.019166508 0.541145356 -0.848830884
O -0.394896465 -1.103196052 -2.291420067
H -4.082649282 1.703724577 2.106885722
H -5.388648663 -0.334753191 -0.192828750
H -3.704902157 2.370182982 -1.178313327
H 4.436006807 0.916054528 1.314907097
H 0.816967664 -3.465359604 1.703221400
H 4.835323210 0.715719729 -1.991673051
H 4.128659955 -2.041056035 -0.247216542
H 0.631338658 2.543126503 -1.171270526

