18

C -5.388545956 0.683690666 1.819192343
C -3.775670340 0.048937765 -0.478414933
C -1.062536327 -0.627055763 0.210131951
C 0.578660180 -1.232761666 -2.089868738
C 3.210946418 -1.988695088 -1.378410493
C 5.290434286 -0.747830220 -2.007882309
H 7.141975943 -1.383922786 -1.409591843
H 5.216192181 0.955914445 -3.147580689
H 3.376047330 -3.684239816 -0.224912085
H 0.643529300 0.404298193 -3.351683696
H -0.307849406 -2.772292948 -3.155765244
H -0.200055573 0.935238593 1.258503912
H -1.065948870 -2.250793979 1.496348810
H -4.629725316 -1.527113400 -1.512965777
H -3.766768974 1.655330864 -1.783248864
H -7.321868932 1.159445111 1.279998091
H -4.608969169 2.294076436 2.850026813
H -5.477103568 -0.911411225 3.127914819

