9

O 1.051864004 0.305624178 2.351595882
C -1.212676674 -0.837269294 2.047840794
H -1.672367766 -2.282912274 3.404459816
C -2.440392960 0.125231583 0.028016702
H -4.276086618 -0.435675697 -0.652197228
C -0.805938996 2.016922815 -1.001990579
H -1.141436153 3.197490321 -2.626917980
C 1.269098265 2.034745616 0.483281923
H 2.992767937 3.116220816 0.464416617

