11

O 3.827193383 -1.760466949 -2.608716894
C 2.425053996 -1.273040365 -1.009409644
O -0.307215422 -1.454216951 2.685089287
C -1.977374608 -1.478593492 0.941737474
C -1.832575988 0.310640985 -1.020068852
C 0.064579123 2.091922114 -0.351588629
C 1.777907590 0.648828149 0.999974581
H -3.573197090 -2.760912167 1.147007576
H -3.302570130 0.535551823 -2.419150341
H 0.094912345 4.111901732 -0.610879953
H 3.212892515 1.199242838 2.344199343

