17

C 4.486554336 -3.048650181 1.411955286
C 3.350849419 -0.624303094 2.322191970
C 1.465111354 0.678566372 1.288342687
O 0.763796119 2.917845758 2.366401527
H -0.887746430 3.371616111 1.734398479
C 0.011172363 -0.023217062 -1.049583294
C -2.819743139 -0.264752765 -0.618701322
O -3.807501076 2.184025552 -0.073721712
H -5.490553448 2.029295967 0.574516351
H -3.187034013 -1.560265357 0.954059093
H -3.722477800 -1.024828278 -2.319182921
H 0.704244424 -1.805269615 -1.809022460
H 0.321280899 1.419949942 -2.500958606
H 4.173118748 0.194936531 4.014769639
H 6.505533872 -2.821552968 1.033809901
H 4.309791414 -4.531403281 2.840920185
H 3.616839351 -3.755424948 -0.316357879

