11

N -3.687543699 0.955165906 -0.954728755
C -1.332871570 -0.046741922 -0.465345039
O -0.045986277 1.671670873 1.046708000
C -0.407453941 -2.269443516 -1.160448348
C 2.249373320 1.157990683 1.745717334
C 4.363084450 0.799475433 2.451291974
H -3.706651741 2.849035746 -1.149072026
H -4.647551102 0.053986036 -2.324076462
H 1.411843036 -2.905581152 -0.496542509
H -1.504583859 -3.487992854 -2.374647857
H 6.243308767 0.479146881 3.079764805

