11

N -3.526742935 1.048021662 -1.330987589
C -1.422586601 0.218899808 -0.270981662
O -0.382563810 1.569139889 1.531227315
C 0.240304604 -1.783748715 -0.792403681
C 2.092071176 0.483655824 1.329332548
C 4.191397426 0.913875390 2.313109436
H -4.155783421 2.804551215 -0.970602474
H -4.503110170 -0.061904990 -2.515061160
H 0.338238923 -3.195387679 0.692539592
H 0.403160351 -2.530408571 -2.694345884
H 5.999022340 0.000941991 2.182270355

