11

O 4.288145697 -1.938486463 -1.079154333
N 3.022972129 -0.167808285 -0.094899854
C 0.611662943 0.013549450 0.003205391
C -1.285580002 1.848459306 1.025880705
O -3.257668631 0.209056263 0.122319591
C -1.490849235 -1.611007773 -0.895590041
H 4.031137558 1.278962276 0.712210262
H -1.345406596 3.708412871 0.122304643
H -1.338935040 2.069704982 3.082147108
H -1.647043565 -3.463286536 0.008566317
H -1.658502524 -1.820335967 -2.945382828

