11

O 4.359665103 -1.678365662 -0.962590092
N 2.885663552 0.203540795 0.110475978
C 0.517680475 0.184334110 0.107918480
C -1.552468215 1.864477059 1.057847236
O -3.371627620 0.108257685 0.057919293
C -1.452303074 -1.581915949 -0.891891696
H 4.987343513 0.374570344 0.203941095
H -1.677152930 3.724606142 0.166419865
H -1.685503649 2.054967122 3.111451998
H -1.514489841 -3.443455127 0.001002160
H -1.510112876 -1.783755367 -2.946809590

