19

C -5.852052783 0.927949787 0.868787621
C -3.096428391 1.741854564 0.804596289
C -1.575583345 0.926298979 -1.353583970
C 1.157849029 0.957460827 -0.801136144
C 1.801513463 -1.858409319 -0.342147557
C 4.486364248 -2.198990463 0.640184579
O 6.353320212 -1.341972982 -1.060602740
H -6.727765891 1.218816148 -0.972780024
H -6.917786829 1.973716023 2.292060004
H -5.995509169 -1.079403191 1.319738238
H -2.167163677 1.571183609 2.662954566
H -2.979415303 3.793582695 0.350600378
H 0.503880845 -2.673932949 1.048939086
H 2.239427163 1.591687780 -2.442662162
H 1.713160906 2.056978735 0.882951874
H 1.559934031 -2.909301399 -2.098375265
H 4.686803416 -1.272762500 2.485875531
H 4.853457192 -4.210319575 0.913798686
H 6.332651295 0.468833776 -1.096775575

