19

C -4.342615843 0.070208900 1.703362884
C -2.307666949 1.767911563 0.587033821
C -1.231676226 0.855194688 -1.889927758
C 1.486582857 1.421487291 -2.194612818
C 1.518047534 -1.304472218 -1.265438413
C 2.652135185 -1.852812744 1.296793184
O 5.305455379 -1.557027387 1.302644116
H -5.773796201 -0.368078700 0.286521125
H -5.264036626 0.956585789 3.321566507
H -3.536685464 -1.718523854 2.355963757
H -0.896393004 2.265339031 2.032746059
H -3.161001561 3.570550528 0.014314241
H -0.690114072 -1.778082674 -1.369200232
H 2.204929343 1.695389959 -4.096593930
H 2.326975887 2.751691569 -0.852847630
H 2.112260103 -2.608893942 -2.739271666
H 1.766001825 -0.672595328 2.748664228
H 2.312706660 -3.822119525 1.803259362
H 5.693465928 0.169770822 0.906648321

