16

C -1.787795110 -1.015955995 -2.119657133
C -1.446873191 0.197503290 0.477769176
C 0.672737266 -0.985045499 2.066518016
C 3.287274516 -0.684925508 0.897229945
C -1.250186282 3.021735473 0.594244808
O -1.995473687 3.988384036 -1.562364805
H -0.204092991 -0.585427572 -3.368215927
H -3.497964674 -0.340740051 -3.046819396
H -1.919583665 -3.067598503 -1.942732073
H -3.203413290 -0.066834322 1.574052723
H 0.259332332 -2.990171057 2.354417281
H 3.721687611 1.310044907 0.581440742
H 4.742376728 -1.453481904 2.139932251
H 3.437335665 -1.663526040 -0.913012560
H 0.650524216 -0.087689925 3.925314710
H -1.923909777 5.800267541 -1.421130983

