8

N -3.021728236 2.493025139 0.998228512
H -3.944730738 3.447120704 -0.378785605
C -0.738167634 1.408971011 0.354352127
N 1.526836480 1.768057469 -0.213871304
H 1.930600863 3.649776143 -0.264808626
C -2.824447197 -0.324459154 0.679641229
H -3.091785353 -1.381041766 2.412214101
H -3.615599898 -1.175218919 -1.010930231

