11

N -2.728102647 2.676408036 0.352547344
C -0.553216132 1.425370659 0.140525477
C -1.531867706 -1.130232439 0.416267907
N 1.353278704 -3.271020453 -0.434798524
C 3.225649092 -2.185047383 -0.694030662
N 1.792344607 2.003264196 0.280919183
H -4.177810711 1.856523315 -0.600119532
H -1.753042045 -1.856593613 2.315739803
H -2.817852525 -1.866629249 -0.990788037
H 5.090434706 -1.475977374 -0.992406134
H 2.048081168 3.901188198 0.208373070

