13

O 4.661801659 -0.461201834 1.284676619
C 3.716647504 -0.120589509 -0.737312193
C 1.151561986 1.043356835 -1.195897059
H 1.352993053 2.572768747 -2.583858151
O -0.115412963 1.821507767 1.052920267
C -1.938165890 -0.131872100 0.737166779
H -2.541073750 -1.170186069 2.389895075
C -3.418585575 0.268903851 -1.614376266
H -3.700767436 2.174964164 -2.311044249
H -4.982704745 -1.019213959 -1.902960160
C -0.853236365 -0.954739300 -1.753208927
H -0.515669807 -2.819873984 -2.509624305
H 4.685483159 -0.697648977 -2.513227748

