13

C 0.274126638 -2.336474029 0.639064349
C 2.113156778 -0.295302645 -0.408373784
C 0.748396268 2.209769083 -0.238041695
C -1.675427251 2.042010215 0.684635775
N -3.228667665 0.103317374 -0.845453868
C -2.100714575 -0.830534859 1.222642220
H 1.043356911 -3.251106462 2.310935250
H -0.154219207 -3.805475422 -0.751618138
H 2.944143319 -0.670865776 -2.263609402
H 1.799493119 3.967238151 -0.253796455
H -2.778015057 3.551248261 1.491844213
H -2.461288984 -0.405464437 -2.567862621
H 3.696145393 -0.219785466 0.917694621

