13

C 0.464064485 -2.279327879 -0.055529508
C 2.412110355 -0.132414810 -0.259555603
C 1.043900264 2.003000050 -0.963895855
C -1.418844981 1.954597569 0.174759151
N -3.582695061 -0.012563844 0.375238778
C -1.259770595 -0.597878600 1.431739206
H 1.160824498 -3.883946583 1.023196897
H -0.280967220 -2.914038545 -1.892403337
H 4.375653509 -0.437560755 -0.765370280
H 1.902474633 3.778432780 -1.518509270
H -2.033997568 3.663363803 1.110240781
H -3.944841401 -1.054913323 -1.205264355
H 1.382576621 -0.028179690 2.483413879

