13

O 1.563452116 3.490432301 -1.080446773
C 1.326787087 1.384010431 0.525104302
C 1.609755848 -1.037566979 -1.062659575
O 1.410021567 -3.037411489 0.777624455
C -1.186952305 -2.370488438 0.957226595
C -1.378251642 0.505938700 0.930831487
C -1.310740137 -1.036136664 -1.492882108
H 2.567282438 1.536406922 2.175131461
H 3.116085644 -1.262960869 -2.436836155
H -2.487107462 -3.614580070 1.920527621
H -2.950238196 1.515560654 1.760186608
H 0.842561283 4.937774674 -0.265572075
H -2.538445519 -1.142213114 -3.115600343

