13

O 1.734997617 3.817357510 -0.164315447
C 2.628482012 1.585463778 0.174294505
C 1.553694893 -0.862519720 -0.765713246
O 1.179627821 -2.520773500 1.339076864
C -1.529105266 -2.083424696 1.100692751
C -2.121314952 0.597660658 1.116792273
C -1.227834413 -0.647848590 -1.334004102
H 4.620433722 1.609298799 0.710307912
H 2.877547840 -1.714789642 -2.118765901
H -2.736511210 -3.644015427 1.629111614
H -4.118673036 1.059870698 1.271257711
H -0.119811924 3.513692562 -0.226515442
H -2.157324251 -0.841210129 -3.139587771

