13

C 4.184750598 0.471674016 -0.839840494
O 2.347356451 -1.433178667 -0.366670306
C 0.006270565 -0.622317785 0.055957795
C -2.065180487 -2.187695456 0.504979324
N -4.199065860 -0.493772076 0.941508402
C -3.151096430 1.778729224 0.571821922
N -0.676055436 1.802590305 0.105775095
H 3.689228598 1.563679469 -2.517233438
H 5.957038975 -0.525266063 -1.131534895
H 4.338803018 1.752994367 0.767631980
H -2.169678827 -4.150508137 1.036121357
H -3.948123572 -1.706732889 -1.008747767
H -4.278476951 3.480767165 0.616947259

