10

C 4.370629653 0.065295480 0.278542872
O 1.967222546 0.270965316 1.495819177
C 0.407023669 -1.677897294 1.160659770
O 0.848463087 -3.531553044 -0.046544465
C -2.076580260 -1.173078635 2.578547681
O -3.774692955 -2.650555430 2.551938050
H -2.153226342 0.643066392 3.607375905
H 5.385624515 -1.580400484 0.987223258
H 5.381843551 1.792731528 0.732789927
H 4.122209375 -0.119828762 -1.757440118

