10

N -2.842776898 0.183188255 0.202339666
C -0.486768543 -0.130044054 -0.550460987
C 1.547987315 1.846364828 -0.386552644
N 3.182629099 0.572967625 0.845129478
N 2.103949994 -1.854321558 1.187220003
N 0.468584143 -2.420039003 -1.144948701
H -3.932958973 -1.365118575 0.394487491
H -3.319078834 1.752197526 1.162537950
H 1.670583014 3.767758510 -1.060399689
H 1.665206668 -2.377395273 -2.654316080

