12

O 1.279987868 -3.220325582 0.300927641
C 2.451479548 -0.968956333 -0.287301809
C 1.427268436 1.270406144 0.164572072
C -1.908431503 3.706898161 1.367371487
N -0.985829774 1.511665305 1.203354768
C -0.740045720 -3.952272994 -1.075869176
O -1.539283293 -2.934273676 -2.911365717
H 4.321309370 -1.187370898 -1.085354486
H 2.511789175 2.957500187 -0.303156744
H -3.782111358 3.945597801 2.175017945
H -0.913156425 5.406847991 0.725229625
H -1.499948739 -5.687134608 -0.232936335

