15

C 2.979391020 0.901846168 -0.695683076
C 0.608403656 0.065231929 0.681344647
O 1.101136912 -0.595214200 3.190184904
C -1.606607224 1.910089095 0.465681959
C -3.477611757 -2.419632447 0.218502739
O -2.885948145 0.315627651 -1.409657341
C -1.036615766 -1.751065391 -0.907670890
H 2.552995296 1.474721613 -2.631495426
H 3.857516609 2.488324049 0.285301402
H 4.344236019 -0.648136433 -0.787888067
H 2.449351244 -1.806444609 3.239861137
H -2.752748550 2.038283051 2.164957591
H -1.205585099 3.747356460 -0.370542752
H -4.507310010 -3.386700831 -1.310164829
H -0.224250322 -2.609483121 -2.598354826

