14

C 2.233608224 -0.576455531 -1.081783736
C -0.195622842 -2.066627015 -0.909915526
C -2.428546342 -0.353030830 -0.494317583
C -1.449555355 -2.038214737 1.582922229
N 0.108377570 1.323022979 2.694518189
C 1.479025445 1.766716954 0.356706026
C -1.295437475 2.088968832 0.393303785
H 2.733890557 -0.132861655 -3.036438015
H 3.822126895 -1.545325919 -0.192272396
H -0.448748860 -3.769063669 -2.019615391
H -4.238166920 -0.570275352 -1.414858907
H -0.611733732 -0.943781459 3.392815928
H 2.722642851 3.392710179 0.425108802
H -2.243305032 3.900620997 0.375549241

