15

C -2.426735607 1.135605479 0.725216642
O -1.787585029 2.153005225 -1.774019044
C -0.061440911 0.715259297 -2.815828912
C -0.210931362 -1.843510264 -1.634372857
C -0.410774171 -0.894559025 1.092155781
C 2.209087685 0.261940210 1.560229433
O 2.991539426 1.751943831 -0.485785886
H -4.352101871 0.395196572 0.679861420
H -2.304209695 2.712221597 2.044456446
H 2.123866328 1.563350713 -2.702021668
H 1.430896483 -3.017288154 -2.018789865
H -1.929608794 -2.793262029 -2.282433436
H -0.928595771 -2.301599492 2.505283585
H 2.164573958 1.458576757 3.255330983
H 3.547131285 -1.288288150 1.916457170

