24

C     3.17319  -1.41472   0.50893
N     2.14127  -0.42354   0.73920
C     1.37782   0.04374  -0.29460
O     1.71592  -0.15480  -1.48308
C     0.20970   0.80952   0.07280
C    -0.75161   1.55199   0.37256
C    -1.30064   2.92968   0.64249
C    -2.44769   0.36097   0.58683
O    -1.79545  -0.79916   0.75221
C    -1.03345  -1.32295  -0.18215
C    -1.35432  -1.17508  -1.62712
H     3.69425  -1.62253   1.45356
H     3.89259  -1.07960  -0.23463
H     2.74557  -2.38760   0.14526
H     1.77376  -0.32004   1.67756
H    -2.14900   3.10889  -0.06050
H    -1.74114   2.95266   1.65836
H    -0.63494   3.82984   0.56026
H    -3.11534   0.50449   1.50033
H    -2.95745   0.47379  -0.39912
H    -0.49412  -2.23309   0.18752
H    -0.69240  -1.79081  -2.23550
H    -1.30036  -0.13839  -1.93396
H    -2.42040  -1.51326  -1.84608
24

C     3.17210  -1.41735   0.50919
N     2.14088  -0.42549   0.73902
C     1.38171   0.04629  -0.29425
O     1.71441  -0.15627  -1.48261
C     0.22318   0.82506   0.07362
C    -0.72961   1.57464   0.37041
C    -1.30256   2.93422   0.64257
C    -2.46615   0.34194   0.58779
O    -1.79742  -0.80430   0.75103
C    -1.03937  -1.33237  -0.18293
C    -1.35795  -1.17770  -1.62653
H     3.69346  -1.62373   1.45379
H     3.89262  -1.08039  -0.23425
H     2.74491  -2.38801   0.14492
H     1.77563  -0.31783   1.67782
H    -2.14925   3.10675  -0.06136
H    -1.74226   2.95042   1.65796
H    -0.64016   3.83456   0.56208
H    -3.11779   0.50065   1.50157
H    -2.95999   0.47142  -0.39886
H    -0.49357  -2.23388   0.18770
H    -0.69463  -1.79207  -2.23613
H    -1.29920  -0.13880  -1.93237
H    -2.42216  -1.51111  -1.84666
24

C     3.17101  -1.41998   0.50944
N     2.14049  -0.42744   0.73884
C     1.38560   0.04883  -0.29389
O     1.71289  -0.15774  -1.48215
C     0.23666   0.84060   0.07443
C    -0.70761   1.59729   0.36827
C    -1.30448   2.93876   0.64264
C    -2.48462   0.32292   0.58875
O    -1.79940  -0.80944   0.74984
C    -1.04530  -1.34179  -0.18370
C    -1.36158  -1.18031  -1.62594
H     3.69266  -1.62492   1.45402
H     3.89265  -1.08117  -0.23387
H     2.74426  -2.38841   0.14457
H     1.77750  -0.31561   1.67808
H    -2.14949   3.10460  -0.06221
H    -1.74339   2.94818   1.65756
H    -0.64537   3.83929   0.56390
H    -3.12024   0.49681   1.50280
H    -2.96254   0.46904  -0.39861
H    -0.49302  -2.23466   0.18788
H    -0.69685  -1.79333  -2.23677
H    -1.29804  -0.13921  -1.93078
H    -2.42393  -1.50896  -1.84725
24

C     3.16992  -1.42261   0.50969
N     2.14010  -0.42940   0.73867
C     1.38949   0.05138  -0.29354
O     1.71138  -0.15921  -1.48169
C     0.25013   0.85614   0.07525
C    -0.68561   1.61994   0.36612
C    -1.30640   2.94330   0.64271
C    -2.50308   0.30389   0.58971
O    -1.80137  -0.81458   0.74865
C    -1.05122  -1.35121  -0.18448
C    -1.36521  -1.18293  -1.62535
H     3.69187  -1.62612   1.45425
H     3.89268  -1.08195  -0.23348
H     2.74361  -2.38882   0.14423
H     1.77936  -0.31340   1.67834
H    -2.14974   3.10245  -0.06306
H    -1.74451   2.94594   1.65716
H    -0.65059   3.84401   0.56572
H    -3.12269   0.49297   1.50404
H    -2.96509   0.46666  -0.39835
H    -0.49248  -2.23545   0.18807
H    -0.69907  -1.79459  -2.23740
H    -1.29689  -0.13961  -1.92919
H    -2.42569  -1.50681  -1.84784
24

C     3.16882  -1.42524   0.50994
N     2.13970  -0.43135   0.73849
C     1.39338   0.05392  -0.29319
O     1.70987  -0.16068  -1.48122
C     0.26361   0.87168   0.07606
C    -0.66362   1.64259   0.36397
C    -1.30832   2.94784   0.64278
C    -2.52155   0.28486   0.59067
O    -1.80335  -0.81972   0.74746
C    -1.05715  -1.36064  -0.18526
C    -1.36884  -1.18554  -1.62476
H     3.69108  -1.62731   1.45448
H     3.89271  -1.08273  -0.23310
H     2.74296  -2.38923   0.14389
H     1.78123  -0.31118   1.67859
H    -2.14999   3.10030  -0.06392
H    -1.74563   2.94370   1.65676
H    -0.65581   3.84873   0.56754
H    -3.12513   0.48912   1.50527
H    -2.96764   0.46429  -0.39809
H    -0.49193  -2.23623   0.18825
H    -0.70130  -1.79585  -2.23803
H    -1.29573  -0.14002  -1.92759
H    -2.42745  -1.50466  -1.84842
24

C     3.16773  -1.42787   0.51019
N     2.13931  -0.43330   0.73831
C     1.39727   0.05647  -0.29283
O     1.70836  -0.16216  -1.48076
C     0.27709   0.88723   0.07688
C    -0.64162   1.66524   0.36183
C    -1.31024   2.95238   0.64286
C    -2.54001   0.26583   0.59163
O    -1.80532  -0.82486   0.74627
C    -1.06307  -1.37006  -0.18603
C    -1.37247  -1.18816  -1.62417
H     3.69029  -1.62851   1.45471
H     3.89274  -1.08352  -0.23272
H     2.74231  -2.38964   0.14354
H     1.78310  -0.30897   1.67885
H    -2.15023   3.09815  -0.06477
H    -1.74676   2.94146   1.65637
H    -0.66102   3.85345   0.56937
H    -3.12758   0.48528   1.50651
H    -2.97019   0.46191  -0.39783
H    -0.49138  -2.23702   0.18843
H    -0.70352  -1.79711  -2.23866
H    -1.29457  -0.14043  -1.92600
H    -2.42922  -1.50251  -1.84901
24

C     3.16664  -1.43050   0.51044
N     2.13892  -0.43526   0.73813
C     1.40116   0.05902  -0.29248
O     1.70685  -0.16363  -1.48030
C     0.29056   0.90277   0.07770
C    -0.61962   1.68789   0.35968
C    -1.31216   2.95693   0.64293
C    -2.55848   0.24680   0.59259
O    -1.80730  -0.83000   0.74509
C    -1.06900  -1.37948  -0.18681
C    -1.37610  -1.19077  -1.62358
H     3.68949  -1.62970   1.45494
H     3.89278  -1.08430  -0.23234
H     2.74165  -2.39005   0.14320
H     1.78496  -0.30675   1.67911
H    -2.15048   3.09600  -0.06562
H    -1.74788   2.93922   1.65597
H    -0.66624   3.85818   0.57119
H    -3.13003   0.48144   1.50774
H    -2.97274   0.45953  -0.39757
H    -0.49083  -2.23780   0.18861
H    -0.70575  -1.79837  -2.23930
H    -1.29342  -0.14084  -1.92441
H    -2.43098  -1.50036  -1.84960
24

C     3.16555  -1.43313   0.51070
N     2.13852  -0.43721   0.73795
C     1.40505   0.06156  -0.29213
O     1.70533  -0.16510  -1.47984
C     0.30404   0.91831   0.07851
C    -0.59762   1.71053   0.35753
C    -1.31408   2.96147   0.64300
C    -2.57694   0.22778   0.59355
O    -1.80927  -0.83514   0.74390
C    -1.07492  -1.38890  -0.18759
C    -1.37973  -1.19339  -1.62299
H     3.68870  -1.63090   1.45517
H     3.89281  -1.08508  -0.23195
H     2.74100  -2.39046   0.14286
H     1.78683  -0.30454   1.67937
H    -2.15073   3.09385  -0.06648
H    -1.74900   2.93698   1.65557
H    -0.67146   3.86290   0.57301
H    -3.13248   0.47760   1.50898
H    -2.97528   0.45716  -0.39732
H    -0.49028  -2.23859   0.18879
H    -0.70797  -1.79963  -2.23993
H    -1.29226  -0.14125  -1.92282
H    -2.43274  -1.49821  -1.85018
24

C     3.16445  -1.43576   0.51095
N     2.13813  -0.43916   0.73777
C     1.40894   0.06411  -0.29178
O     1.70382  -0.16657  -1.47937
C     0.31752   0.93385   0.07933
C    -0.57562   1.73318   0.35539
C    -1.31600   2.96601   0.64307
C    -2.59541   0.20875   0.59451
O    -1.81124  -0.84029   0.74271
C    -1.08084  -1.39832  -0.18837
C    -1.38336  -1.19601  -1.62240
H     3.68791  -1.63209   1.45540
H     3.89284  -1.08587  -0.23157
H     2.74035  -2.39086   0.14251
H     1.78870  -0.30232   1.67963
H    -2.15097   3.09170  -0.06733
H    -1.75013   2.93474   1.65517
H    -0.67668   3.86762   0.57483
H    -3.13493   0.47376   1.51022
H    -2.97783   0.45478  -0.39706
H    -0.48973  -2.23937   0.18897
H    -0.71020  -1.80089  -2.24056
H    -1.29110  -0.14166  -1.92123
H    -2.43451  -1.49606  -1.85077
24

C     3.16336  -1.43839   0.51120
N     2.13774  -0.44112   0.73759
C     1.41283   0.06665  -0.29142
O     1.70231  -0.16804  -1.47891
C     0.33099   0.94939   0.08014
C    -0.55362   1.75583   0.35324
C    -1.31792   2.97055   0.64315
C    -2.61387   0.18972   0.59547
O    -1.81322  -0.84543   0.74152
C    -1.08677  -1.40775  -0.18914
C    -1.38699  -1.19862  -1.62181
H     3.68711  -1.63329   1.45563
H     3.89287  -1.08665  -0.23119
H     2.73970  -2.39127   0.14217
H     1.79056  -0.30011   1.67989
H    -2.15122   3.08955  -0.06818
H    -1.75125   2.93249   1.65477
H    -0.68189   3.87234   0.57665
H    -3.13738   0.46991   1.51145
H    -2.98038   0.45240  -0.39680
H    -0.48918  -2.24016   0.18915
H    -0.71242  -1.80215  -2.24120
H    -1.28994  -0.14207  -1.91964
H    -2.43627  -1.49391  -1.85135
24

C     3.16227  -1.44102   0.51145
N     2.13735  -0.44307   0.73742
C     1.41672   0.06920  -0.29107
O     1.70080  -0.16951  -1.47845
C     0.34447   0.96493   0.08096
C    -0.53162   1.77848   0.35109
C    -1.31984   2.97509   0.64322
C    -2.63234   0.17069   0.59643
O    -1.81519  -0.85057   0.74033
C    -1.09269  -1.41717  -0.18992
C    -1.39062  -1.20124  -1.62122
H     3.68632  -1.63448   1.45586
H     3.89290  -1.08743  -0.23080
H     2.73905  -2.39168   0.14183
H     1.79243  -0.29789   1.68015
H    -2.15147   3.08740  -0.06904
H    -1.75237   2.93025   1.65437
H    -0.68711   3.87707   0.57847
H    -3.13983   0.46607   1.51269
H    -2.98293   0.45002  -0.39654
H    -0.48863  -2.24094   0.18933
H    -0.71465  -1.80341  -2.24183
H    -1.28879  -0.14248  -1.91805
H    -2.43803  -1.49176  -1.85194
24

C     3.16118  -1.44365   0.51170
N     2.13695  -0.44502   0.73724
C     1.42061   0.07175  -0.29072
O     1.69929  -0.17098  -1.47798
C     0.35795   0.98047   0.08177
C    -0.50962   1.80113   0.34894
C    -1.32176   2.97963   0.64329
C    -2.65080   0.15167   0.59739
O    -1.81717  -0.85571   0.73914
C    -1.09862  -1.42659  -0.19070
C    -1.39425  -1.20385  -1.62063
H     3.68553  -1.63568   1.45610
H     3.89293  -1.08821  -0.23042
H     2.73839  -2.39209   0.14149
H     1.79429  -0.29567   1.68041
H    -2.15171   3.08525  -0.06989
H    -1.75350   2.92801   1.65398
H    -0.69233   3.88179   0.58029
H    -3.14228   0.46223   1.51392
H    -2.98548   0.44765  -0.39628
H    -0.48809  -2.24173   0.18951
H    -0.71687  -1.80466  -2.24246
H    -1.28763  -0.14289  -1.91646
H    -2.43980  -1.48961  -1.85253
24

C     3.16008  -1.44628   0.51195
N     2.13656  -0.44698   0.73706
C     1.42450   0.07429  -0.29036
O     1.69777  -0.17245  -1.47752
C     0.37142   0.99601   0.08259
C    -0.48762   1.82378   0.34680
C    -1.32368   2.98417   0.64336
C    -2.66927   0.13264   0.59835
O    -1.81914  -0.86085   0.73796
C    -1.10454  -1.43601  -0.19147
C    -1.39787  -1.20647  -1.62004
H     3.68473  -1.63687   1.45633
H     3.89296  -1.08900  -0.23004
H     2.73774  -2.39250   0.14114
H     1.79616  -0.29346   1.68067
H    -2.15196   3.08311  -0.07074
H    -1.75462   2.92577   1.65358
H    -0.69754   3.88651   0.58211
H    -3.14472   0.45839   1.51516
H    -2.98803   0.44527  -0.39603
H    -0.48754  -2.24251   0.18970
H    -0.71910  -1.80592  -2.24309
H    -1.28647  -0.14329  -1.91487
H    -2.44156  -1.48745  -1.85311
24

C     3.15899  -1.44891   0.51220
N     2.13617  -0.44893   0.73688
C     1.42839   0.07684  -0.29001
O     1.69626  -0.17392  -1.47706
C     0.38490   1.01155   0.08341
C    -0.46562   1.84643   0.34465
C    -1.32560   2.98871   0.64343
C    -2.68773   0.11361   0.59931
O    -1.82112  -0.86599   0.73677
C    -1.11047  -1.44543  -0.19225
C    -1.40150  -1.20908  -1.61945
H     3.68394  -1.63807   1.45656
H     3.89299  -1.08978  -0.22966
H     2.73709  -2.39291   0.14080
H     1.79803  -0.29124   1.68092
H    -2.15221   3.08096  -0.07160
H    -1.75575   2.92353   1.65318
H    -0.70276   3.89123   0.58393
H    -3.14717   0.45455   1.51640
H    -2.99057   0.44289  -0.39577
H    -0.48699  -2.24330   0.18988
H    -0.72132  -1.80718  -2.24373
H    -1.28532  -0.14370  -1.91328
H    -2.44332  -1.48530  -1.85370
24

C     3.15790  -1.45154   0.51246
N     2.13577  -0.45088   0.73670
C     1.43228   0.07938  -0.28966
O     1.69475  -0.17539  -1.47660
C     0.39838   1.02709   0.08422
C    -0.44362   1.86908   0.34250
C    -1.32752   2.99325   0.64351
C    -2.70620   0.09458   0.60027
O    -1.82309  -0.87113   0.73558
C    -1.11639  -1.45486  -0.19303
C    -1.40513  -1.21170  -1.61886
H     3.68315  -1.63927   1.45679
H     3.89302  -1.09056  -0.22927
H     2.73644  -2.39331   0.14046
H     1.79989  -0.28903   1.68118
H    -2.15245   3.07881  -0.07245
H    -1.75687   2.92129   1.65278
H    -0.70798   3.89596   0.58576
H    -3.14962   0.45070   1.51763
H    -2.99312   0.44052  -0.39551
H    -0.48644  -2.24408   0.19006
H    -0.72354  -1.80844  -2.24436
H    -1.28416  -0.14411  -1.91169
H    -2.44509  -1.48315  -1.85429
24

C     3.15681  -1.45417   0.51271
N     2.13538  -0.45283   0.73652
C     1.43617   0.08193  -0.28930
O     1.69324  -0.17686  -1.47613
C     0.41185   1.04263   0.08504
C    -0.42162   1.89173   0.34036
C    -1.32944   2.99780   0.64358
C    -2.72467   0.07555   0.60123
O    -1.82507  -0.87627   0.73439
C    -1.12231  -1.46428  -0.19380
C    -1.40876  -1.21431  -1.61827
H     3.68236  -1.64046   1.45702
H     3.89305  -1.09134  -0.22889
H     2.73579  -2.39372   0.14011
H     1.80176  -0.28681   1.68144
H    -2.15270   3.07666  -0.07331
H    -1.75799   2.91905   1.65238
H    -0.71320   3.90068   0.58758
H    -3.15207   0.44686   1.51887
H    -2.99567   0.43814  -0.39525
H    -0.48589  -2.24487   0.19024
H    -0.72577  -1.80970  -2.24499
H    -1.28300  -0.14452  -1.91010
H    -2.44685  -1.48100  -1.85487
24

C     3.15571  -1.45680   0.51296
N     2.13499  -0.45479   0.73634
C     1.44006   0.08448  -0.28895
O     1.69172  -0.17833  -1.47567
C     0.42533   1.05818   0.08585
C    -0.39962   1.91438   0.33821
C    -1.33136   3.00234   0.64365
C    -2.74313   0.05653   0.60219
O    -1.82704  -0.88141   0.73320
C    -1.12824  -1.47370  -0.19458
C    -1.41239  -1.21693  -1.61768
H     3.68156  -1.64166   1.45725
H     3.89309  -1.09213  -0.22851
H     2.73514  -2.39413   0.13977
H     1.80363  -0.28460   1.68170
H    -2.15295   3.07451  -0.07416
H    -1.75912   2.91681   1.65198
H    -0.71841   3.90540   0.58940
H    -3.15452   0.44302   1.52010
H    -2.99822   0.43576  -0.39499
H    -0.48534  -2.24565   0.19042
H    -0.72799  -1.81096  -2.24563
H    -1.28184  -0.14493  -1.90850
H    -2.44861  -1.47885  -1.85546
24

C     3.15462  -1.45943   0.51321
N     2.13460  -0.45674   0.73617
C     1.44395   0.08702  -0.28860
O     1.69021  -0.17980  -1.47521
C     0.43880   1.07372   0.08667
C    -0.37762   1.93703   0.33606
C    -1.33328   3.00688   0.64372
C    -2.76160   0.03750   0.60315
O    -1.82902  -0.88655   0.73202
C    -1.13416  -1.48312  -0.19536
C    -1.41602  -1.21954  -1.61709
H     3.68077  -1.64285   1.45748
H     3.89312  -1.09291  -0.22812
H     2.73448  -2.39454   0.13943
H     1.80549  -0.28238   1.68196
H    -2.15319   3.07236  -0.07501
H    -1.76024   2.91457   1.65159
H    -0.72363   3.91012   0.59122
H    -3.15697   0.43918   1.52134
H    -3.00077   0.43339  -0.39474
H    -0.48479  -2.24644   0.19060
H    -0.73022  -1.81222  -2.24626
H    -1.28069  -0.14534  -1.90691
H    -2.45038  -1.47670  -1.85604
24

C     3.15353  -1.46206   0.51346
N     2.13420  -0.45869   0.73599
C     1.44784   0.08957  -0.28825
O     1.68870  -0.18127  -1.47474
C     0.45228   1.08926   0.08748
C    -0.35563   1.95968   0.33392
C    -1.33521   3.01142   0.64380
C    -2.78006   0.01847   0.60411
O    -1.83099  -0.89169   0.73083
C    -1.14009  -1.49255  -0.19614
C    -1.41965  -1.22216  -1.61650
H     3.67998  -1.64405   1.45771
H     3.89315  -1.09369  -0.22774
H     2.73383  -2.39495   0.13908
H     1.80736  -0.28017   1.68222
H    -2.15344   3.07021  -0.07587
H    -1.76136   2.91232   1.65119
H    -0.72885   3.91485   0.59304
H    -3.15942   0.43534   1.52257
H    -3.00331   0.43101  -0.39448
H    -0.48424  -2.24722   0.19078
H    -0.73244  -1.81348  -2.24689
H    -1.27953  -0.14575  -1.90532
H    -2.45214  -1.47455  -1.85663
24

C     3.15244  -1.46469   0.51371
N     2.13381  -0.46065   0.73581
C     1.45173   0.09211  -0.28789
O     1.68719  -0.18274  -1.47428
C     0.46576   1.10480   0.08830
C    -0.33363   1.98232   0.33177
C    -1.33713   3.01596   0.64387
C    -2.79853  -0.00056   0.60507
O    -1.83296  -0.89683   0.72964
C    -1.14601  -1.50197  -0.19691
C    -1.42328  -1.22477  -1.61591
H     3.67918  -1.64524   1.45794
H     3.89318  -1.09448  -0.22736
H     2.73318  -2.39536   0.13874
H     1.80923  -0.27795   1.68248
H    -2.15369   3.06806  -0.07672
H    -1.76249   2.91008   1.65079
H    -0.73406   3.91957   0.59486
H    -3.16187   0.43149   1.52381
H    -3.00586   0.42863  -0.39422
H    -0.48370  -2.24801   0.19096
H    -0.73467  -1.81474  -2.24752
H    -1.27837  -0.14616  -1.90373
H    -2.45390  -1.47240  -1.85722
24

C     3.15134  -1.46732   0.51396
N     2.13342  -0.46260   0.73563
C     1.45562   0.09466  -0.28754
O     1.68568  -0.18421  -1.47382
C     0.47923   1.12034   0.08912
C    -0.31163   2.00497   0.32962
C    -1.33905   3.02050   0.64394
C    -2.81699  -0.01959   0.60603
O    -1.83494  -0.90198   0.72845
C    -1.15193  -1.51139  -0.19769
C    -1.42691  -1.22739  -1.61532
H     3.67839  -1.64644   1.45817
H     3.89321  -1.09526  -0.22698
H     2.73253  -2.39577   0.13840
H     1.81109  -0.27574   1.68274
H    -2.15394   3.06591  -0.07757
H    -1.76361   2.90784   1.65039
H    -0.73928   3.92429   0.59668
H    -3.16431   0.42765   1.52505
H    -3.00841   0.42626  -0.39396
H    -0.48315  -2.24880   0.19114
H    -0.73689  -1.81600  -2.24816
H    -1.27722  -0.14657  -1.90214
H    -2.45567  -1.47025  -1.85780
24

C     3.15244  -1.46469   0.51371
N     2.13381  -0.46065   0.73581
C     1.45173   0.09211  -0.28789
O     1.68719  -0.18274  -1.47428
C     0.46576   1.10480   0.08830
C    -0.33363   1.98232   0.33177
C    -1.33713   3.01596   0.64387
C    -2.79853  -0.00056   0.60507
O    -1.83296  -0.89683   0.72964
C    -1.14601  -1.50197  -0.19691
C    -1.42328  -1.22477  -1.61591
H     3.67918  -1.64524   1.45794
H     3.89318  -1.09448  -0.22736
H     2.73318  -2.39536   0.13874
H     1.80923  -0.27795   1.68248
H    -2.15369   3.06806  -0.07672
H    -1.76249   2.91008   1.65079
H    -0.73406   3.91957   0.59486
H    -3.16187   0.43149   1.52381
H    -3.00586   0.42863  -0.39422
H    -0.48370  -2.24801   0.19096
H    -0.73467  -1.81474  -2.24752
H    -1.27837  -0.14616  -1.90373
H    -2.45390  -1.47240  -1.85722
24

C     3.15353  -1.46206   0.51346
N     2.13420  -0.45869   0.73599
C     1.44784   0.08957  -0.28825
O     1.68870  -0.18127  -1.47474
C     0.45228   1.08926   0.08748
C    -0.35563   1.95968   0.33392
C    -1.33521   3.01142   0.64380
C    -2.78006   0.01847   0.60411
O    -1.83099  -0.89169   0.73083
C    -1.14009  -1.49255  -0.19614
C    -1.41965  -1.22216  -1.61650
H     3.67998  -1.64405   1.45771
H     3.89315  -1.09369  -0.22774
H     2.73383  -2.39495   0.13908
H     1.80736  -0.28017   1.68222
H    -2.15344   3.07021  -0.07587
H    -1.76136   2.91232   1.65119
H    -0.72885   3.91485   0.59304
H    -3.15942   0.43534   1.52257
H    -3.00331   0.43101  -0.39448
H    -0.48424  -2.24722   0.19078
H    -0.73244  -1.81348  -2.24689
H    -1.27953  -0.14575  -1.90532
H    -2.45214  -1.47455  -1.85663
24

C     3.15462  -1.45943   0.51321
N     2.13460  -0.45674   0.73617
C     1.44395   0.08702  -0.28860
O     1.69021  -0.17980  -1.47521
C     0.43880   1.07372   0.08667
C    -0.37762   1.93703   0.33606
C    -1.33328   3.00688   0.64372
C    -2.76160   0.03750   0.60315
O    -1.82902  -0.88655   0.73202
C    -1.13416  -1.48312  -0.19536
C    -1.41602  -1.21954  -1.61709
H     3.68077  -1.64285   1.45748
H     3.89312  -1.09291  -0.22812
H     2.73448  -2.39454   0.13943
H     1.80549  -0.28238   1.68196
H    -2.15319   3.07236  -0.07501
H    -1.76024   2.91457   1.65159
H    -0.72363   3.91012   0.59122
H    -3.15697   0.43918   1.52134
H    -3.00077   0.43339  -0.39474
H    -0.48479  -2.24644   0.19060
H    -0.73022  -1.81222  -2.24626
H    -1.28069  -0.14534  -1.90691
H    -2.45038  -1.47670  -1.85604
24

C     3.15571  -1.45680   0.51296
N     2.13499  -0.45479   0.73634
C     1.44006   0.08448  -0.28895
O     1.69172  -0.17833  -1.47567
C     0.42533   1.05818   0.08585
C    -0.39962   1.91438   0.33821
C    -1.33136   3.00234   0.64365
C    -2.74313   0.05653   0.60219
O    -1.82704  -0.88141   0.73320
C    -1.12824  -1.47370  -0.19458
C    -1.41239  -1.21693  -1.61768
H     3.68156  -1.64166   1.45725
H     3.89309  -1.09213  -0.22851
H     2.73514  -2.39413   0.13977
H     1.80363  -0.28460   1.68170
H    -2.15295   3.07451  -0.07416
H    -1.75912   2.91681   1.65198
H    -0.71841   3.90540   0.58940
H    -3.15452   0.44302   1.52010
H    -2.99822   0.43576  -0.39499
H    -0.48534  -2.24565   0.19042
H    -0.72799  -1.81096  -2.24563
H    -1.28184  -0.14493  -1.90850
H    -2.44861  -1.47885  -1.85546
24

C     3.15681  -1.45417   0.51271
N     2.13538  -0.45283   0.73652
C     1.43617   0.08193  -0.28930
O     1.69324  -0.17686  -1.47613
C     0.41185   1.04263   0.08504
C    -0.42162   1.89173   0.34036
C    -1.32944   2.99780   0.64358
C    -2.72467   0.07555   0.60123
O    -1.82507  -0.87627   0.73439
C    -1.12231  -1.46428  -0.19380
C    -1.40876  -1.21431  -1.61827
H     3.68236  -1.64046   1.45702
H     3.89305  -1.09134  -0.22889
H     2.73579  -2.39372   0.14011
H     1.80176  -0.28681   1.68144
H    -2.15270   3.07666  -0.07331
H    -1.75799   2.91905   1.65238
H    -0.71320   3.90068   0.58758
H    -3.15207   0.44686   1.51887
H    -2.99567   0.43814  -0.39525
H    -0.48589  -2.24487   0.19024
H    -0.72577  -1.80970  -2.24499
H    -1.28300  -0.14452  -1.91010
H    -2.44685  -1.48100  -1.85487
24

C     3.15790  -1.45154   0.51246
N     2.13577  -0.45088   0.73670
C     1.43228   0.07938  -0.28966
O     1.69475  -0.17539  -1.47660
C     0.39838   1.02709   0.08422
C    -0.44362   1.86908   0.34250
C    -1.32752   2.99325   0.64351
C    -2.70620   0.09458   0.60027
O    -1.82309  -0.87113   0.73558
C    -1.11639  -1.45486  -0.19303
C    -1.40513  -1.21170  -1.61886
H     3.68315  -1.63927   1.45679
H     3.89302  -1.09056  -0.22927
H     2.73644  -2.39331   0.14046
H     1.79989  -0.28903   1.68118
H    -2.15245   3.07881  -0.07245
H    -1.75687   2.92129   1.65278
H    -0.70798   3.89596   0.58576
H    -3.14962   0.45070   1.51763
H    -2.99312   0.44052  -0.39551
H    -0.48644  -2.24408   0.19006
H    -0.72354  -1.80844  -2.24436
H    -1.28416  -0.14411  -1.91169
H    -2.44509  -1.48315  -1.85429
24

C     3.15899  -1.44891   0.51220
N     2.13617  -0.44893   0.73688
C     1.42839   0.07684  -0.29001
O     1.69626  -0.17392  -1.47706
C     0.38490   1.01155   0.08341
C    -0.46562   1.84643   0.34465
C    -1.32560   2.98871   0.64343
C    -2.68773   0.11361   0.59931
O    -1.82112  -0.86599   0.73677
C    -1.11047  -1.44543  -0.19225
C    -1.40150  -1.20908  -1.61945
H     3.68394  -1.63807   1.45656
H     3.89299  -1.08978  -0.22966
H     2.73709  -2.39291   0.14080
H     1.79803  -0.29124   1.68092
H    -2.15221   3.08096  -0.07160
H    -1.75575   2.92353   1.65318
H    -0.70276   3.89123   0.58393
H    -3.14717   0.45455   1.51640
H    -2.99057   0.44289  -0.39577
H    -0.48699  -2.24330   0.18988
H    -0.72132  -1.80718  -2.24373
H    -1.28532  -0.14370  -1.91328
H    -2.44332  -1.48530  -1.85370
24

C     3.16008  -1.44628   0.51195
N     2.13656  -0.44698   0.73706
C     1.42450   0.07429  -0.29036
O     1.69777  -0.17245  -1.47752
C     0.37142   0.99601   0.08259
C    -0.48762   1.82378   0.34680
C    -1.32368   2.98417   0.64336
C    -2.66927   0.13264   0.59835
O    -1.81914  -0.86085   0.73796
C    -1.10454  -1.43601  -0.19147
C    -1.39787  -1.20647  -1.62004
H     3.68473  -1.63687   1.45633
H     3.89296  -1.08900  -0.23004
H     2.73774  -2.39250   0.14114
H     1.79616  -0.29346   1.68067
H    -2.15196   3.08311  -0.07074
H    -1.75462   2.92577   1.65358
H    -0.69754   3.88651   0.58211
H    -3.14472   0.45839   1.51516
H    -2.98803   0.44527  -0.39603
H    -0.48754  -2.24251   0.18970
H    -0.71910  -1.80592  -2.24309
H    -1.28647  -0.14329  -1.91487
H    -2.44156  -1.48745  -1.85311
24

C     3.16118  -1.44365   0.51170
N     2.13695  -0.44502   0.73724
C     1.42061   0.07175  -0.29072
O     1.69929  -0.17098  -1.47798
C     0.35795   0.98047   0.08177
C    -0.50962   1.80113   0.34894
C    -1.32176   2.97963   0.64329
C    -2.65080   0.15167   0.59739
O    -1.81717  -0.85571   0.73914
C    -1.09862  -1.42659  -0.19070
C    -1.39425  -1.20385  -1.62063
H     3.68553  -1.63568   1.45610
H     3.89293  -1.08821  -0.23042
H     2.73839  -2.39209   0.14149
H     1.79429  -0.29567   1.68041
H    -2.15171   3.08525  -0.06989
H    -1.75350   2.92801   1.65398
H    -0.69233   3.88179   0.58029
H    -3.14228   0.46223   1.51392
H    -2.98548   0.44765  -0.39628
H    -0.48809  -2.24173   0.18951
H    -0.71687  -1.80466  -2.24246
H    -1.28763  -0.14289  -1.91646
H    -2.43980  -1.48961  -1.85253
24

C     3.16227  -1.44102   0.51145
N     2.13735  -0.44307   0.73742
C     1.41672   0.06920  -0.29107
O     1.70080  -0.16951  -1.47845
C     0.34447   0.96493   0.08096
C    -0.53162   1.77848   0.35109
C    -1.31984   2.97509   0.64322
C    -2.63234   0.17069   0.59643
O    -1.81519  -0.85057   0.74033
C    -1.09269  -1.41717  -0.18992
C    -1.39062  -1.20124  -1.62122
H     3.68632  -1.63448   1.45586
H     3.89290  -1.08743  -0.23080
H     2.73905  -2.39168   0.14183
H     1.79243  -0.29789   1.68015
H    -2.15147   3.08740  -0.06904
H    -1.75237   2.93025   1.65437
H    -0.68711   3.87707   0.57847
H    -3.13983   0.46607   1.51269
H    -2.98293   0.45002  -0.39654
H    -0.48863  -2.24094   0.18933
H    -0.71465  -1.80341  -2.24183
H    -1.28879  -0.14248  -1.91805
H    -2.43803  -1.49176  -1.85194
24

C     3.16336  -1.43839   0.51120
N     2.13774  -0.44112   0.73759
C     1.41283   0.06665  -0.29142
O     1.70231  -0.16804  -1.47891
C     0.33099   0.94939   0.08014
C    -0.55362   1.75583   0.35324
C    -1.31792   2.97055   0.64315
C    -2.61387   0.18972   0.59547
O    -1.81322  -0.84543   0.74152
C    -1.08677  -1.40775  -0.18914
C    -1.38699  -1.19862  -1.62181
H     3.68711  -1.63329   1.45563
H     3.89287  -1.08665  -0.23119
H     2.73970  -2.39127   0.14217
H     1.79056  -0.30011   1.67989
H    -2.15122   3.08955  -0.06818
H    -1.75125   2.93249   1.65477
H    -0.68189   3.87234   0.57665
H    -3.13738   0.46991   1.51145
H    -2.98038   0.45240  -0.39680
H    -0.48918  -2.24016   0.18915
H    -0.71242  -1.80215  -2.24120
H    -1.28994  -0.14207  -1.91964
H    -2.43627  -1.49391  -1.85135
24

C     3.16445  -1.43576   0.51095
N     2.13813  -0.43916   0.73777
C     1.40894   0.06411  -0.29178
O     1.70382  -0.16657  -1.47937
C     0.31752   0.93385   0.07933
C    -0.57562   1.73318   0.35539
C    -1.31600   2.96601   0.64307
C    -2.59541   0.20875   0.59451
O    -1.81124  -0.84029   0.74271
C    -1.08084  -1.39832  -0.18837
C    -1.38336  -1.19601  -1.62240
H     3.68791  -1.63209   1.45540
H     3.89284  -1.08587  -0.23157
H     2.74035  -2.39086   0.14251
H     1.78870  -0.30232   1.67963
H    -2.15097   3.09170  -0.06733
H    -1.75013   2.93474   1.65517
H    -0.67668   3.86762   0.57483
H    -3.13493   0.47376   1.51022
H    -2.97783   0.45478  -0.39706
H    -0.48973  -2.23937   0.18897
H    -0.71020  -1.80089  -2.24056
H    -1.29110  -0.14166  -1.92123
H    -2.43451  -1.49606  -1.85077
24

C     3.16555  -1.43313   0.51070
N     2.13852  -0.43721   0.73795
C     1.40505   0.06156  -0.29213
O     1.70533  -0.16510  -1.47984
C     0.30404   0.91831   0.07851
C    -0.59762   1.71053   0.35753
C    -1.31408   2.96147   0.64300
C    -2.57694   0.22778   0.59355
O    -1.80927  -0.83514   0.74390
C    -1.07492  -1.38890  -0.18759
C    -1.37973  -1.19339  -1.62299
H     3.68870  -1.63090   1.45517
H     3.89281  -1.08508  -0.23195
H     2.74100  -2.39046   0.14286
H     1.78683  -0.30454   1.67937
H    -2.15073   3.09385  -0.06648
H    -1.74900   2.93698   1.65557
H    -0.67146   3.86290   0.57301
H    -3.13248   0.47760   1.50898
H    -2.97528   0.45716  -0.39732
H    -0.49028  -2.23859   0.18879
H    -0.70797  -1.79963  -2.23993
H    -1.29226  -0.14125  -1.92282
H    -2.43274  -1.49821  -1.85018
24

C     3.16664  -1.43050   0.51044
N     2.13892  -0.43526   0.73813
C     1.40116   0.05902  -0.29248
O     1.70685  -0.16363  -1.48030
C     0.29056   0.90277   0.07770
C    -0.61962   1.68789   0.35968
C    -1.31216   2.95693   0.64293
C    -2.55848   0.24680   0.59259
O    -1.80730  -0.83000   0.74509
C    -1.06900  -1.37948  -0.18681
C    -1.37610  -1.19077  -1.62358
H     3.68949  -1.62970   1.45494
H     3.89278  -1.08430  -0.23234
H     2.74165  -2.39005   0.14320
H     1.78496  -0.30675   1.67911
H    -2.15048   3.09600  -0.06562
H    -1.74788   2.93922   1.65597
H    -0.66624   3.85818   0.57119
H    -3.13003   0.48144   1.50774
H    -2.97274   0.45953  -0.39757
H    -0.49083  -2.23780   0.18861
H    -0.70575  -1.79837  -2.23930
H    -1.29342  -0.14084  -1.92441
H    -2.43098  -1.50036  -1.84960
24

C     3.16773  -1.42787   0.51019
N     2.13931  -0.43330   0.73831
C     1.39727   0.05647  -0.29283
O     1.70836  -0.16216  -1.48076
C     0.27709   0.88723   0.07688
C    -0.64162   1.66524   0.36183
C    -1.31024   2.95238   0.64286
C    -2.54001   0.26583   0.59163
O    -1.80532  -0.82486   0.74627
C    -1.06307  -1.37006  -0.18603
C    -1.37247  -1.18816  -1.62417
H     3.69029  -1.62851   1.45471
H     3.89274  -1.08352  -0.23272
H     2.74231  -2.38964   0.14354
H     1.78310  -0.30897   1.67885
H    -2.15023   3.09815  -0.06477
H    -1.74676   2.94146   1.65637
H    -0.66102   3.85345   0.56937
H    -3.12758   0.48528   1.50651
H    -2.97019   0.46191  -0.39783
H    -0.49138  -2.23702   0.18843
H    -0.70352  -1.79711  -2.23866
H    -1.29457  -0.14043  -1.92600
H    -2.42922  -1.50251  -1.84901
24

C     3.16882  -1.42524   0.50994
N     2.13970  -0.43135   0.73849
C     1.39338   0.05392  -0.29319
O     1.70987  -0.16068  -1.48122
C     0.26361   0.87168   0.07606
C    -0.66362   1.64259   0.36397
C    -1.30832   2.94784   0.64278
C    -2.52155   0.28486   0.59067
O    -1.80335  -0.81972   0.74746
C    -1.05715  -1.36064  -0.18526
C    -1.36884  -1.18554  -1.62476
H     3.69108  -1.62731   1.45448
H     3.89271  -1.08273  -0.23310
H     2.74296  -2.38923   0.14389
H     1.78123  -0.31118   1.67859
H    -2.14999   3.10030  -0.06392
H    -1.74563   2.94370   1.65676
H    -0.65581   3.84873   0.56754
H    -3.12513   0.48912   1.50527
H    -2.96764   0.46429  -0.39809
H    -0.49193  -2.23623   0.18825
H    -0.70130  -1.79585  -2.23803
H    -1.29573  -0.14002  -1.92759
H    -2.42745  -1.50466  -1.84842
24

C     3.16992  -1.42261   0.50969
N     2.14010  -0.42940   0.73867
C     1.38949   0.05138  -0.29354
O     1.71138  -0.15921  -1.48169
C     0.25013   0.85614   0.07525
C    -0.68561   1.61994   0.36612
C    -1.30640   2.94330   0.64271
C    -2.50308   0.30389   0.58971
O    -1.80137  -0.81458   0.74865
C    -1.05122  -1.35121  -0.18448
C    -1.36521  -1.18293  -1.62535
H     3.69187  -1.62612   1.45425
H     3.89268  -1.08195  -0.23348
H     2.74361  -2.38882   0.14423
H     1.77936  -0.31340   1.67834
H    -2.14974   3.10245  -0.06306
H    -1.74451   2.94594   1.65716
H    -0.65059   3.84401   0.56572
H    -3.12269   0.49297   1.50404
H    -2.96509   0.46666  -0.39835
H    -0.49248  -2.23545   0.18807
H    -0.69907  -1.79459  -2.23740
H    -1.29689  -0.13961  -1.92919
H    -2.42569  -1.50681  -1.84784
24

C     3.17101  -1.41998   0.50944
N     2.14049  -0.42744   0.73884
C     1.38560   0.04883  -0.29389
O     1.71289  -0.15774  -1.48215
C     0.23666   0.84060   0.07443
C    -0.70761   1.59729   0.36827
C    -1.30448   2.93876   0.64264
C    -2.48462   0.32292   0.58875
O    -1.79940  -0.80944   0.74984
C    -1.04530  -1.34179  -0.18370
C    -1.36158  -1.18031  -1.62594
H     3.69266  -1.62492   1.45402
H     3.89265  -1.08117  -0.23387
H     2.74426  -2.38841   0.14457
H     1.77750  -0.31561   1.67808
H    -2.14949   3.10460  -0.06221
H    -1.74339   2.94818   1.65756
H    -0.64537   3.83929   0.56390
H    -3.12024   0.49681   1.50280
H    -2.96254   0.46904  -0.39861
H    -0.49302  -2.23466   0.18788
H    -0.69685  -1.79333  -2.23677
H    -1.29804  -0.13921  -1.93078
H    -2.42393  -1.50896  -1.84725
24

C     3.17210  -1.41735   0.50919
N     2.14088  -0.42549   0.73902
C     1.38171   0.04629  -0.29425
O     1.71441  -0.15627  -1.48261
C     0.22318   0.82506   0.07362
C    -0.72961   1.57464   0.37041
C    -1.30256   2.93422   0.64257
C    -2.46615   0.34194   0.58779
O    -1.79742  -0.80430   0.75103
C    -1.03937  -1.33237  -0.18293
C    -1.35795  -1.17770  -1.62653
H     3.69346  -1.62373   1.45379
H     3.89262  -1.08039  -0.23425
H     2.74491  -2.38801   0.14492
H     1.77563  -0.31783   1.67782
H    -2.14925   3.10675  -0.06136
H    -1.74226   2.95042   1.65796
H    -0.64016   3.83456   0.56208
H    -3.11779   0.50065   1.50157
H    -2.95999   0.47142  -0.39886
H    -0.49357  -2.23388   0.18770
H    -0.69463  -1.79207  -2.23613
H    -1.29920  -0.13880  -1.93237
H    -2.42216  -1.51111  -1.84666
