12

C -2.449607567 0.689431484 1.450570157
N -0.140951875 1.052924934 -0.016298623
C 0.187168850 0.377322768 -2.807890815
C 1.372644390 -1.158681491 -0.735606167
C 4.064901484 -0.979360693 -0.249398892
N 6.184491305 -0.831408951 0.183568374
H -2.028398536 0.556858617 3.464408221
H -3.360747068 -1.040191015 0.810675802
H -3.713933139 2.275274285 1.098520057
H 0.870223359 2.590639264 0.497752708
H -1.590752554 -0.550025028 -3.326069365
H 0.573555973 -2.908453687 -0.005374494

