13

C 2.168161641 -1.278174506 0.003622340
C 1.092935161 1.002291707 1.444877017
C -1.249442051 1.654591528 -0.113668085
C -2.065981315 -0.951572176 -1.103519895
C 0.132199570 -2.662348380 -1.315201913
H 3.158718942 -0.614912837 -1.723709017
H 3.544533270 -2.458354599 0.982860957
H 2.427448393 2.562001636 1.625636653
H -0.746378400 2.877688605 -1.702926546
H -2.718205037 2.618197196 0.963601360
H -3.046800857 -2.009206515 0.420651845
H -3.368598237 -0.998332901 -2.699708133
H 0.554153323 0.426791168 3.356314016

