13

C -4.047161321 0.331125559 -0.488070186
C -1.510631908 -0.962582514 -0.402601181
O 0.382845171 0.974907950 -0.185415241
C 2.751430768 0.184133440 -0.107720455
N 3.441210000 -2.085457702 -0.207210076
C 5.807810307 3.920442051 0.282515076
N 4.378604430 2.250619973 0.101681476
H -4.169710703 1.605062241 -2.102828026
H -5.534225812 -1.085459971 -0.665248546
H -4.381097943 1.416195321 1.231288416
H -1.131494795 -2.059178849 -2.108485583
H -1.331543886 -2.234033317 1.212405612
H 5.344863331 -2.251531728 -0.117095216

