13

C -3.971917359 0.459295383 -0.536237907
C -1.471249166 -0.885856931 -0.336447746
O 0.470104976 1.024870684 -0.144687712
C 2.791043831 0.182078079 -0.008925006
N 3.527136508 -2.050318754 -0.068506540
C 4.647492237 2.603854515 1.094974648
N 4.821158087 2.679033206 -1.134618248
H -4.023955824 1.668765740 -2.203114507
H -5.484748606 -0.932066404 -0.695323235
H -4.323125491 1.617952573 1.130465934
H -1.063881717 -2.048793632 -1.990557356
H -1.354213589 -2.089492569 1.334756251
H 5.427510616 -2.226103705 0.000288561

