19

C -4.381300540 -0.986579598 0.883455051
C -2.105887342 -0.275064415 -0.720050962
C 0.355242868 -0.234883981 0.832275107
C 2.794033472 -0.093919615 -0.700815818
C 5.137069292 -0.216320653 0.966573275
C -2.483134993 2.233044178 -2.027279535
O -4.250939390 3.616183087 -1.690907793
H -4.130436203 -2.865037097 1.696792041
H -4.638777765 0.359461360 2.424516048
H -6.114860643 -0.980095664 -0.228910311
H 0.393766673 -1.956175226 1.979067047
H -1.853489228 -1.666680408 -2.241176520
H 0.276514515 1.340306017 2.175028849
H 2.847918502 1.646521150 -1.813845570
H 2.829202617 -1.651784075 -2.062613596
H 6.865648076 -0.145710734 -0.155396242
H 5.172912577 -1.962848491 2.067705066
H 5.185892823 1.362277428 2.296199392
H -0.973640020 2.781333417 -3.376297794

