12

O 1.972639994 1.817742847 -1.824687553
C 0.904563840 1.805568929 0.673415772
C -1.717554028 0.700846148 0.761070132
C -1.390464186 -1.766173090 -0.743769841
O 1.236666577 -2.409925983 -0.616622756
C 2.546955145 -0.209952106 -0.190113988
H -3.146751023 1.925962643 -0.076295255
H -2.229419400 0.342889105 2.728906253
H -2.458148448 -3.351568290 0.019884757
H -1.917527322 -1.487274327 -2.717609886
H 4.514539139 -0.514603510 0.277342556
H 1.475562144 3.335184384 1.909584463

