9

O -1.501260001 2.861933165 -1.958692341
C -0.211857876 0.816386800 -1.344074660
C 0.699285083 -1.346010647 -1.935859612
H 1.065211102 -2.894234745 -3.191682286
C 1.188319673 -0.420137386 0.750197669
C 3.677701136 0.505931972 1.469751369
N 5.628865848 1.257827825 2.050354810
H 0.179102327 -1.264458344 2.334168922
H -1.487737158 4.033470936 -0.570737843

