12

O 3.155986474 -0.118052967 2.886459958
C 2.074244993 -0.830689627 0.881536582
C 1.530205162 -3.153255234 -0.107126042
C -3.089681918 0.932827623 0.143696664
C -1.142686831 2.213537405 -0.877851881
C 1.386997956 1.477052949 -0.409811393
H 2.264683239 -4.861755187 0.743545417
H 0.345838098 -3.291416493 -1.765315892
H -5.029315955 1.437374842 -0.274718992
H -2.758719461 -0.582418410 1.479144271
H -1.489617738 3.868051756 -2.037591846
H 2.926871317 2.779293306 -0.768288508

