18

C -4.288799618 -0.230783219 -1.327780138
C -2.925576608 1.508000880 0.514731728
C -1.132557048 0.122547927 2.293283431
N 0.937423324 -1.139049920 0.998103734
C 3.109340701 -0.024267995 0.438842991
O 3.448872348 2.355730773 0.882742095
C 5.437202776 -1.063938731 -0.488727377
H -5.562754573 0.835527836 -2.547575089
H -2.957580368 -1.225593991 -2.552464660
H -5.415851478 -1.646282856 -0.329670886
H -1.845399253 2.938053563 -0.511320640
H -4.302481896 2.525505091 1.672589242
H -0.295373755 1.453434925 3.625651068
H -2.155239372 -1.307749022 3.378156907
H 0.722085706 -2.934136765 0.423982695
H 5.874933663 -3.037108736 -0.124568327
H 5.598754026 1.621403137 0.536336872
H 5.768463167 -0.514772867 -2.444422234

