13

N -2.074662452 -0.223197291 -2.579843258
C -1.074254613 0.226438512 -0.124435574
O -2.888145688 0.925610910 1.662524164
C -1.483765974 -1.354357529 2.093849068
O 4.075821115 -1.312749540 0.588892026
C 3.527800445 0.847480108 0.107204239
N 1.144747199 1.751333430 -0.210304124
H -3.740387680 -1.151163670 -2.480040945
H -0.845342847 -1.224332920 -3.646724538
H -2.556952571 -3.090507785 1.883500630
H -0.165084585 -1.291407899 3.660318547
H 4.962561512 2.345207606 -0.124314802
H 0.927319676 3.532034489 -0.843893200

