13

N -2.150089944 -0.153196469 -2.460195494
C -1.343590531 0.487856326 0.061712824
O -3.150936521 1.303563845 1.545347481
C -0.552550552 -1.440569802 1.882802603
O 2.974765405 -1.618368710 0.860756700
C 3.119676199 0.605094878 0.064231961
N 1.080885076 1.981655631 -0.283482257
H -3.936047428 -0.821310595 -2.385117771
H -0.999375595 -1.402775676 -3.336965110
H -1.330820140 -3.330736781 1.741312383
H 0.008316949 -0.770673532 3.722052045
H 4.969574456 1.437887506 -0.333627122
H 1.119846146 3.701963670 -1.092095990

