16

C 3.335372449 -0.717229223 -0.978547638
C 2.080892558 -1.887521098 1.283021785
C 0.522343393 -1.024918097 -0.910947316
C -3.689312937 0.464419168 0.661090373
C -1.259039933 1.209229284 -0.659781096
O -0.194183438 3.218227155 0.763428454
H 1.120989354 3.989990189 -0.213800382
H 4.133832665 1.151558774 -0.733526392
H 4.407606737 -1.919855578 -2.237221361
H 2.306775962 -3.895438839 1.594517550
H 2.000494368 -0.749566255 2.980787093
H -0.227609443 -2.502121053 -2.119914023
H -3.277650897 -0.152705348 2.585733100
H -4.980472091 2.067601982 0.749685099
H -4.617749328 -1.083177352 -0.337155562
H -1.710864832 1.888313328 -2.570155483

