16

C 3.434991743 0.041474443 -0.816998353
C 1.894575899 -1.680396192 1.149338648
C 0.124746906 -1.063654005 -0.754054203
C -3.907458253 0.468400953 0.794452447
C -1.485646724 1.303838423 -0.637948334
O -0.222523131 3.177489479 0.446424421
H 2.337420649 1.918873185 -1.074297831
H 4.892653211 0.827739859 0.408361350
H 4.256237237 -0.949641575 -2.409367266
H 2.586067789 -3.599150966 1.313721464
H 1.727682317 -0.609458218 2.888245144
H -0.106296263 -2.407835851 -2.297872348
H -3.434687686 -0.002324023 2.746454704
H -5.173363164 2.090286632 0.813649797
H -4.888313228 -1.124362062 -0.086928460
H -2.084660842 1.665526976 -2.625963215

