14

C -3.393051067 0.182273023 0.143488908
C -1.175618351 -1.478743423 -0.619809401
C 1.378010324 -0.257940473 -0.351950020
N 3.479760904 -1.795499467 -1.023423872
C 1.642159360 2.099579228 0.362432803
N 1.895706522 4.391092666 0.664065294
H -3.457973571 1.907502325 -0.985403187
H -3.270805326 0.733067755 2.128780901
H -5.174085493 -0.819214341 -0.123870659
H -1.185374610 -3.218889088 0.506611896
H -1.368498671 -2.079134092 -2.589683440
H 2.010530779 4.915375769 2.514299752
H 5.115747512 -0.818517334 -1.088201151
H 3.686133718 -3.281016934 0.162758899

