13

C -2.251168012 -1.167953603 1.120265722
C -0.300187190 0.053924374 -0.549883752
O -1.208752204 0.762544913 -2.937225202
C 2.348058976 -0.884469003 -0.569367055
C 1.743108983 1.659769151 0.578026252
H -1.426642218 -1.766001239 2.912709577
H -3.054660493 -2.821639725 0.185099808
H -3.787183780 0.150165594 1.538656736
H -2.348653049 2.156527126 -2.718211783
H 2.841604323 -2.425083041 0.682197783
H 3.302188934 -0.888522560 -2.376571825
H 1.824072447 1.857589026 2.613280072
H 2.318213284 3.313148986 -0.478976333

