13

C -3.273090440 -1.369763843 0.648427564
C 0.302113917 0.130405502 0.576942891
O -1.453874702 0.059558555 -1.790207931
C 2.877316386 -0.705731260 -0.199260981
C 2.344051169 2.055622025 0.235414465
H -2.466286630 -3.161144765 1.195951861
H -4.837446185 -1.609809592 -0.686271106
H -3.776942013 -0.220237224 2.257235375
H -2.173784786 1.728409408 -1.934418374
H 3.987915610 -1.755516056 1.163247164
H 3.162418837 -1.277385299 -2.146711889
H 3.067805126 2.997780247 1.901845373
H 2.295165164 3.239207877 -1.442630983

