11

C -3.442028535 0.018637991 0.535425722
C -0.669689138 0.297683360 0.189868267
C 0.934266555 2.324362850 0.392378292
C 3.216923206 1.126418519 -0.210925334
N 2.919940085 -1.326219602 -0.702823331
O 0.480329528 -1.953514831 -0.473943463
H -3.877469036 -1.388212823 1.980785394
H -4.204061124 1.835844175 1.112329439
H -4.355450523 -0.571339437 -1.218711684
H 4.082592401 -2.751049289 -1.177200826
H 5.115532026 1.884172049 -0.329976852

