10

O 4.204424575 -3.371889366 0.701811326
C 2.063817446 -3.083682359 0.303149657
N 1.736073722 3.157242254 -0.657733275
N 0.336300404 2.292836228 0.985829849
C -1.911224121 1.151806498 0.040501139
C -2.112251599 -1.308009540 -0.389178400
N -0.159978922 -3.042050974 -0.149762024
H 3.275009778 3.912517182 0.260263116
H -3.523666480 2.398116687 -0.130630795
H -3.896467228 -2.118670942 -0.961587989

