8

N -1.369098924 1.241684291 0.194210971
C -1.375258467 -1.281442447 -0.016759698
N 0.948162524 -2.140047562 0.060468212
C 2.331040159 0.002947330 0.327828630
N 1.007292073 2.100940133 0.418215175
H -2.830289833 2.452620414 0.203726876
H -3.076980672 -2.388339943 -0.215939439
H 4.365133158 0.011637803 0.460042713

