10

O 4.090637324 -1.030799756 -0.133203601
C 1.784160675 -0.761586746 0.138783282
C 0.199499351 1.719495438 0.857484696
N -1.829329495 0.636623182 -0.696660669
C -0.531849679 -1.382150582 -1.408439412
H -0.334736543 2.031631782 2.823148936
H 1.021243676 3.405385952 0.020417225
H -3.704421826 0.718240000 -0.357829752
H 0.657513538 -2.255147397 1.479328557
H -1.204411314 -2.952079356 -2.546423017

