16

C -2.727596352 1.196651324 2.469682316
O -1.079317473 -0.551433214 1.288182439
C -0.456417349 0.205343499 -2.536864329
C 1.897550214 -1.357727667 -2.693138953
N 2.822110891 -1.813146107 -0.103718507
C 1.706035051 0.198536025 1.359141031
O 1.832612327 2.365200039 0.263653531
H -2.188198407 3.129697303 1.993898411
H -4.643280397 0.806749027 1.818344441
H -2.663182202 0.934735000 4.518042993
H -0.435692874 2.107139644 -3.271886590
H -2.266816041 -0.742805098 -2.626630099
H 3.325459588 -0.323253565 -3.755164034
H 1.523290844 -3.164923386 -3.614169489
H 2.218372137 -3.509673096 0.544469837
H 2.275022800 0.069917032 3.357078165

