10

C 4.386985838 0.972595417 0.793510910
C 2.173154430 1.165258834 0.372569729
C -1.697048251 -1.215782023 -0.629629419
C -0.533600700 1.337621907 -0.138419623
N -3.132588452 -1.559474412 -2.498086393
H 6.358430674 0.816269448 1.160561656
H -1.217091565 -2.692657376 0.740829559
H -0.903669244 2.554129207 -1.760887432
H -1.469543933 2.183085451 1.502931860
H -3.785089075 -3.368001481 -2.544997238

