10

C 3.846434442 -0.062467146 0.138125884
C 1.585430802 -0.333048148 0.106070308
C -1.204844250 -0.848512730 -0.040331404
C -1.506846182 1.868232965 0.142326953
N -2.312109412 -1.702290559 -2.258641463
H 5.845729779 0.162429538 0.167471309
H -1.648747852 -1.896515608 1.701443413
H -1.203090660 2.905749640 -1.591390790
H -2.197910333 2.857144920 1.806668485
H -1.072362657 -2.837798509 -3.196332524

