16

C -1.007670926 -1.418169102 4.471162214
C -1.247778261 -0.271372892 1.956619765
C 1.197884502 0.382848497 0.858382373
C 1.349625787 0.812784132 -1.960796589
C -0.144130697 -0.831555424 -3.718555428
C -0.846580485 1.890566202 -3.378181889
H -2.595598302 -1.012395789 5.720084024
H -1.221319317 -3.433422250 3.970813627
H 0.811114748 -1.217754028 5.458389648
H -2.537869644 2.272010387 -2.292221046
H 1.403727815 2.221533705 1.861942729
H 2.796510128 -0.762071857 1.547589679
H 3.208905627 1.373268699 -2.615140602
H -1.387746042 -2.211143575 -2.855680496
H 0.712128928 -1.418189530 -5.480381222
H -0.459482920 3.195761770 -4.903760340

