16

C -1.685093673 -1.457549180 2.821301974
C -1.084694840 1.070830259 1.748225152
C 1.702502643 1.495678959 1.089598188
C 1.621658269 1.211348971 -1.749708965
C 0.664715870 -1.292981852 -2.680563204
C -1.133804608 0.810534696 -2.286398800
H -1.229841094 -1.239282997 4.834020451
H -3.689843591 -1.919417407 2.709262323
H -0.553127089 -3.069032900 2.151350637
H -2.325281332 1.430057558 -0.341751168
H 2.318687568 3.379801762 1.666401088
H 2.963825780 0.110716862 1.973258841
H 2.840806858 2.317687109 -2.966008376
H 0.671418350 -2.934883264 -1.454846211
H 1.067933725 -1.725464950 -4.641714438
H -2.238732896 1.647822321 -3.792744885

