11

C -2.947216202 0.011903593 -0.265313731
C -0.229875508 -0.603614637 0.069487157
C 1.916233899 1.201286841 -0.053339032
N 4.063046378 -0.440813446 0.410316177
N 3.307883775 -2.624928665 0.714919090
N 0.601346115 -2.822987875 0.515676950
H -4.086006720 -1.690101787 -0.090490537
H -3.272075354 0.858749339 -2.118962451
H -3.554131397 1.385002141 1.150521182
H 1.846581315 2.683801987 1.383542422
H 2.126821104 2.124508419 -1.889480706

