11

C -3.056815631 0.092058273 -0.126892067
C -0.299461913 -0.413983606 0.096891077
C 1.723532819 1.258881555 0.283104690
N 3.934375247 -0.287301582 0.525775797
N 3.136080175 -2.634872933 0.345992677
N 0.655163229 -2.741802009 0.177053259
H -4.051100417 -1.674726768 -0.472710795
H -3.457071322 1.397959067 -1.670154046
H -3.793945712 0.925205281 1.610070677
H 1.817905987 3.261558481 0.657596024
H 3.349011453 0.853940043 -1.476268373

