11

C -3.195621136 -0.139433178 0.512867418
N -0.498056539 -0.003114949 0.116827782
N 0.855585389 1.997601537 0.615349458
C 3.163098061 1.478204567 -0.174752650
C 3.274761543 -0.897121097 -1.444357191
N 0.798676211 -1.754338454 -1.220127410
H -3.648077450 0.765348397 2.301375182
H -3.729104786 -2.123122362 0.569824387
H -4.206594377 0.801046627 -1.017151890
H 4.661018122 2.831596900 0.099383361
H 2.356509132 -3.053886839 -0.335777479

