14

N 3.504413837 0.672200773 3.443903105
C 1.397751462 0.650330915 1.915291114
O 0.745359894 3.044196153 1.295203640
C 0.111876946 -1.416639388 1.211544955
C -2.213610726 -1.348841494 -0.331308390
C -2.337432555 -0.058541788 -2.797276545
O -2.194882520 -2.710448146 -2.655579343
H 4.584665137 2.225710548 3.256738866
H 4.490740873 -0.949664705 3.485507883
H 0.752021425 -3.241822861 1.877476240
H -0.796685177 2.992466186 0.337223706
H -4.005915573 -1.571603676 0.659029060
H -0.652184359 0.856853660 -3.536742364
H -4.126254485 0.697027144 -3.469298190

