16

C -3.860817696 -1.624984036 -0.435294803
C -1.125827015 -1.088696524 -0.886494865
O -1.290535431 1.836389606 -2.544919948
C 0.242964204 -0.451009482 1.504831035
N 2.984605435 -0.228455889 1.321051617
C 4.150738892 1.780488673 0.329970389
O 3.083603349 3.626918167 -0.555395535
H -3.993542818 -3.528329322 0.364799005
H -4.922694262 -1.640025368 -2.198151935
H -4.779799277 -0.303495269 0.877552473
H -0.486834287 0.108927442 -3.207321508
H 0.161233247 2.813143498 -1.908916180
H -0.485511195 1.283932993 2.381354023
H -0.144394691 -1.989698816 2.827126772
H 4.055327716 -1.722190225 1.793992864
H 6.226617590 1.653348712 0.387929574

