12

C -2.294846537 1.693041540 -0.556120660
C -1.663683076 -0.914609983 0.477934206
C 0.596738358 -3.931753555 -1.835549925
C 0.882259535 -1.878534940 -0.508265954
C 3.191007445 -0.608329900 -0.000697536
C 5.116652388 0.491408407 0.453701435
H -4.077737732 2.360833468 0.235618990
H -0.825175198 3.056069038 -0.074322305
H -2.475845771 1.642860448 -2.608717177
H -3.134490499 -2.275454829 -0.029667264
H -1.544051224 -0.908564541 2.538561038
H 6.836568101 1.456924097 0.848628438

