12

O 2.298700690 4.402890000 1.198623631
C 1.314443660 2.338327170 1.182564115
N 2.164944855 0.340538682 -0.203260945
C 0.495892953 -1.756708303 -0.764699748
C -2.187426038 -0.824896993 -0.554585768
O -2.563493575 0.272282757 1.949360363
C -0.907084432 1.770765730 2.940908788
H 3.762207534 0.598850240 -1.204935543
H 0.806017249 -3.348444913 0.521151770
H 0.832944581 -2.421231817 -2.687341708
H -3.565302759 -2.342121135 -0.700398453
H -2.597476463 0.635669551 -1.951910832

