10

N -2.383081138 1.603270497 -0.883967621
C -2.729458620 -0.233636384 0.650376760
O -3.717544122 -1.654238074 1.963675605
C 1.443933741 -1.016404484 0.525324209
C 3.549499867 0.150161550 -0.744547728
N 5.120277903 1.196535106 -1.830561993
H -0.204115309 0.997138632 -0.791411934
H -3.855830293 2.685343625 -1.480809819
H 1.700181284 -0.910751899 2.564801624
H 1.252321503 -2.977202471 -0.070492907

