18

C 3.263407823 0.741601135 -2.459528799
C 1.915284595 -0.922644248 -0.597937824
C 2.525374851 -0.940382370 2.138535044
N 0.251245400 0.275287743 1.214679784
C -2.168873217 -0.946437053 1.731230599
C -4.204094629 -0.219906012 -0.104806233
O -3.682431442 3.031173446 -0.490297437
H 2.007927530 1.251703959 -4.015364997
H 4.912254395 -0.217032664 -3.246569570
H 3.895774643 2.479426670 -1.548599908
H 1.233622190 -2.710980462 -1.354491095
H 3.975991533 0.310809567 2.866960649
H 2.307801366 -2.706094783 3.162097792
H -2.056903997 -3.025946294 1.643524914
H -2.677698682 -0.456803742 3.675678166
H -3.746475640 -0.816794074 -2.024458155
H -5.247989903 2.275455963 0.449938291
H -2.201408991 3.235069925 0.583261776

