12

C 2.921835858 -1.773502488 0.057385880
C 0.358621528 -0.867888772 0.880546328
C -1.489810415 3.483499066 -0.020538148
C -3.563195015 1.677463016 -0.232052302
C -0.992353297 0.828362467 -0.947175104
O -0.568146159 -1.410804688 2.887682422
H 3.790258988 -2.888081608 1.548997752
H 4.114663472 -0.153691558 -0.404467267
H 2.741229365 -2.913455281 -1.654422303
H -5.055362542 2.073672217 -1.579269218
H -4.193317332 0.909170236 1.577107730
H -0.322641502 0.776247770 -2.884475254

