14

O 2.129442381 -2.856813235 0.094787415
C 1.546645081 -0.630886994 1.301492932
C -0.524750602 2.601452409 1.953046879
C -0.087680401 1.037477992 -1.436587563
C -2.331572457 -0.509849752 -0.334521000
C -1.051235632 -0.242416297 2.256191358
H 3.835224965 -2.780677209 -0.522443454
H 3.138092034 0.102939505 2.371959892
H 1.186346213 3.146413462 3.019045807
H 1.135133312 0.077837838 -2.789004250
H -0.508799556 2.900053023 -2.178889314
H -4.137294171 0.464345223 -0.460199050
H -2.471776095 -2.425355729 -1.077265098
H -1.734117061 -1.045676096 4.028018263

