13

O 1.703100968 -0.056518420 4.794208552
C 1.815033547 -0.561602019 2.371286620
C -1.637941189 -2.081629740 -2.191875984
N -0.587072315 0.078781794 -1.490421344
C -0.531348335 0.538331459 1.232848782
C 0.558839787 1.806938451 -2.891728288
H 3.190309759 -0.742104331 5.586624479
H -1.601062050 -2.604125162 -4.160431751
H -2.445661119 -3.285127617 -0.768453916
H -0.614598670 2.576173694 1.569128513
H -2.213518148 -0.305030785 2.088031244
H 0.728972605 1.496865858 -4.897781833
H 1.344065268 3.444256465 -1.980947249

