13

O 0.956390354 -1.605440281 4.146611957
C 1.663907292 -0.471412496 1.977700831
C -0.500914806 -2.076318854 -1.109622633
N -0.646502859 0.503584441 -1.329876902
C -0.468120782 1.378847851 1.267399590
C 0.012820110 1.911788299 -3.221220065
H 2.313002478 -2.707996264 4.632212668
H -0.020735152 -3.124404577 -2.801252207
H -1.854550328 -2.898361000 0.181154060
H -0.009862046 3.380186756 1.404536504
H -2.257436272 0.987332011 2.228989563
H 0.233751147 1.059179984 -5.062395441
H 0.352003367 3.895682859 -2.909454410

