13

C -2.335864498 1.690555227 -0.016719012
C -2.126928743 -1.166306404 -0.282705976
C 0.369092179 -2.240070463 0.668793218
N 2.544753746 -1.349736525 -0.706000527
C 3.098792590 -0.517805877 -2.727454509
O 3.845817692 0.316462645 -4.631445893
H 0.344573115 -4.302131409 0.563118581
H 0.649549155 -1.743394143 2.652749591
H -2.386630648 -1.720527871 -2.258217673
H -3.640126143 -2.084035569 0.785566444
H -4.169149908 2.359438623 -0.680048654
H -2.125651553 2.268562922 1.954233891
H -0.887465182 2.666552945 -1.114111866

