15

C -3.312546372 1.044737204 0.711756898
C -1.944384336 -0.807985985 -1.011618337
C 0.361660756 -2.025221585 0.216673106
N 2.281785430 -0.189691389 0.997381159
C 3.749705654 0.908895055 -0.623075641
O 4.450017917 1.230245854 -2.700477440
H -4.952283953 1.864816511 -0.230982131
H -3.976501853 0.111802717 2.430600588
H -2.070531057 2.591216140 1.276218564
H -1.354383645 0.140065083 -2.751765269
H -3.231511986 -2.322946576 -1.580220185
H 1.202790874 -3.411326721 -1.064771344
H -0.195569930 -3.030323504 1.929805345
H 3.868620828 1.443362099 2.228306861
H 5.110731271 2.431551101 1.279044668

