13

C -3.249090805 -0.664928917 1.074901882
C -2.006586901 0.699529236 -1.092057704
H -3.254399990 1.144648064 -2.657003081
C 0.075935904 2.580280238 -0.599612877
H 0.171366110 4.292201238 -1.712919871
H 0.694510048 2.773000877 1.341929746
C 0.675833941 0.121244016 -1.826538010
O 2.096953227 -1.577992821 -0.393061069
H 1.571097589 -3.261784832 -0.812032512
H 1.140345365 0.140318873 -3.827637922
H -4.119537359 -2.429342068 0.445259159
H -1.874726216 -1.122007614 2.540828502
H -4.727275454 0.495051647 1.926933774

