16

C -3.432389288 -0.848822267 0.710901797
C -1.879596304 0.776606610 -1.035384704
C -0.034392789 2.670731715 0.083854480
C 0.940971379 0.520138858 -1.391814679
C 4.154908799 -0.792005686 0.178157880
O 1.802461010 -2.439060438 -0.421968096
H -3.886686704 -2.664755475 -0.161546148
H -2.443949009 -1.213269897 2.489165374
H -5.209788050 0.075802131 1.205611158
H -2.867897122 1.354042266 -2.739293473
H 0.186550588 4.562200734 -0.673305620
H 0.172866155 2.566107500 2.119094978
H 1.699355606 0.769280010 -3.256821504
H 5.780228186 -1.995140887 -0.251243945
H 4.092915899 -0.413542544 2.209438759
H 1.004756874 -3.113619154 1.073075348

