10

N -2.670074865 0.623454002 -2.198171229
C -3.415085878 0.461905001 0.048965090
O -2.006603191 -0.459376075 1.956616628
C 0.420521491 -1.244301656 1.453742100
C 1.810672097 -2.227636670 3.274278662
H 1.088944361 -2.448892740 5.174968448
H 3.719381522 -2.826838532 2.868266034
H 1.027443962 -0.976581832 -0.479474540
H -5.254682028 1.021834102 0.789613576
H -4.035635428 1.372321701 -3.310163446

