11

C -2.784785833 -1.137346654 -1.244026682
C -0.357537373 -1.613484051 -1.615152906
C 1.530074167 -2.087689695 0.450270070
C 3.312766392 0.132299216 0.704395753
O 5.555860153 0.021559791 0.411856436
H 2.379244918 1.951997400 1.176829779
H 2.651901274 -3.778494649 0.083084738
H 0.545160759 -2.309412319 2.255882312
H 0.388102087 -1.628725694 -3.528838301
H -4.052786639 -0.773336779 -2.808600483
H -3.599906535 -1.109912233 0.637356925

