14

C -3.181217681 -0.851817521 -0.850311749
C -0.563463683 -0.389920608 -1.037620571
O -0.894744256 2.875428738 0.596517317
C 1.319451907 -1.529612072 0.729509930
C 3.577361234 0.202056812 1.024588302
O 5.196398188 0.373729699 -0.552973133
H -2.863020003 1.510427346 0.149755731
H -4.297135918 -0.749060280 -2.563784555
H -3.820883493 -2.182743996 0.570167751
H 0.218532011 0.301195510 -2.803029117
H -0.673855228 4.349935584 -0.450204686
H 1.959491997 -3.309277448 -0.108812792
H 0.432132233 -1.918457728 2.549281058
H 3.619706746 1.354619804 2.763481854

