10

C -2.622176771 0.322148680 0.598739597
N -0.070630347 -2.083803398 -0.060008555
N 0.736601543 -0.381760412 1.729701471
C 2.750851813 0.689762621 0.657153639
N 3.224238979 -0.310801517 -1.587518798
N 1.403672881 -1.954454101 -2.032272286
H -3.726309314 -0.817273327 1.880037480
H -3.214556438 0.198546286 -1.357818525
H -2.360263942 2.253425857 1.224051786
H 3.884140620 2.130972454 1.541787388

