16

C -2.160799079 1.377568223 2.131473723
C -1.326177423 0.363853367 -0.400568459
C -0.817467969 2.035551263 -2.828656448
C 1.479882852 1.534404474 -1.425060480
C 1.433617708 -1.109202018 -0.947081582
C 2.945958835 -2.242459077 1.172276729
H -1.275566419 3.185720880 2.541110109
H -1.656468706 0.056686511 3.635603160
H -4.212795740 1.606717622 2.169365774
H -2.546791438 -1.142216572 -1.071731829
H 0.944118567 -2.474290791 -2.433998939
H -1.380568409 0.952984217 -4.500908166
H -1.500121705 3.971161109 -2.849232372
H 4.746838466 -2.937263714 0.440488092
H 3.341572168 -0.823086541 2.610453136
H 1.970583991 -3.844995812 2.035561184

