8

C -1.679853425 -0.620825450 0.212339643
C 0.434727054 1.242585237 0.000223951
O 0.275187474 3.480783945 0.131094251
C 4.761020539 -0.922553182 -0.724748954
N 2.821836011 0.083408467 -0.398618621
H -3.444469116 0.379517572 0.530348273
H -1.787560557 -1.734262022 -1.520180600
H -1.299104394 -1.926213883 1.762183501

