9

C -3.142958381 0.606977499 1.887962557
C -3.075163984 -2.010465168 0.825212842
C -3.600852929 -2.612670806 -1.545483655
H -3.517914361 -4.549327957 -2.203410249
H -4.132804918 -1.186393966 -2.919973193
H -2.550710560 -3.506053514 2.133867156
H -1.292964447 1.151028101 2.628999022
H -3.696080669 1.985757906 0.458885577
H -4.476680876 0.731310820 3.460455651

