9

C 3.983215257 -0.871005838 1.094504729
C 4.051110074 1.399331802 0.045876579
C 2.345739961 2.283975699 -2.026683005
H 1.015882428 0.811984192 -2.586966486
H 1.265322100 3.942110558 -1.434412791
H 3.436385813 2.842857419 -3.689600723
H 5.442113475 2.756965493 0.714557547
H 2.629261240 -2.289352291 0.493039070
H 5.275608062 -1.396867315 2.592094825

