18

C -2.761515292 1.356407826 0.937561482
C -1.275748400 -1.040631019 1.194236972
C -1.986215200 -3.136264536 -0.355070903
C 1.690108496 -1.919174993 -0.615951393
C 2.278035571 0.446503147 0.518834399
C 2.474087306 2.788791523 -1.057089569
H -1.968635116 2.918653710 2.017027695
H -2.948667777 1.921956878 -1.035419683
H -4.665953539 0.919548839 1.623527756
H -0.800487419 -1.514722258 3.129131519
H -1.797771201 -5.051825296 0.314612528
H -2.941826647 -2.803753222 -2.128974825
H 1.591629028 -1.981982913 -2.660207849
H 2.442306194 -3.634726157 0.204198797
H 3.083693527 0.445562252 2.395594810
H 0.927976659 2.941839535 -2.423718187
H 2.422621673 4.500102330 0.095646900
H 4.230655164 2.851787301 -2.162474472

