13

C -3.089662888 0.896487604 0.037463764
C -1.491075284 -0.934266574 1.029954916
O 0.760356761 -3.257792578 -1.470260801
C 1.377951270 -1.464544209 0.085152684
C 2.581144429 0.919967829 -1.012110384
H -1.603355667 0.759954722 2.488464607
H -5.117079258 0.631721667 -0.137343481
H -2.315533218 2.681701329 -0.607588447
H -2.349112706 -2.625573421 1.798122463
H 2.443005903 -2.027749831 1.805195519
H 1.564138237 1.538226067 -2.695882968
H 2.686512742 2.460855670 0.365509750
H 4.505268086 0.450345981 -1.583513675

