14

C 2.971771058 0.102766519 -0.476248551
C 1.334927214 1.100671983 1.607064236
C -0.802173414 2.460558284 1.239782093
C -3.092428181 -1.250852071 -1.258458313
O -0.825542410 -1.241241396 -2.283668316
C 1.166592263 -2.020582912 -1.003921426
H 3.134951214 1.365478398 -2.093249212
H 4.826803172 -0.532355786 0.136857235
H 1.689229660 0.313290060 3.469434534
H -1.172081313 3.428722652 -0.522569782
H -2.001842990 2.946085560 2.824545973
H -4.615362188 -0.960630181 -2.592194319
H -3.363178352 -2.358641953 0.446884154
H 0.770905136 -3.391065588 0.486139586

