14

C -3.157110672 0.282920290 0.352314775
C -0.563592581 0.680330847 -0.773216952
C 0.823122294 2.853625721 0.440352788
C 2.436472005 1.258005119 1.208874809
N 3.159562157 -2.026515273 -1.661534287
C 1.127547101 -2.122699422 -0.269305645
O 0.074474390 -3.648532496 1.083356592
H -4.348888865 1.921811255 -0.047574195
H -3.038006620 0.020382397 2.389892013
H -4.019106145 -1.406677923 -0.443794092
H -0.475655706 0.808971383 -2.821793889
H 0.424159895 4.846857285 0.563693435
H 3.981827517 0.492256705 2.263770331
H 4.037418479 -3.744505846 -1.595506765

