12

C -3.544218461 -0.201009053 -0.020758093
C -0.723363879 -0.027974050 0.095796718
C 0.759706147 2.232318731 -0.266126275
N 3.134682382 1.156542359 -0.380390814
C 3.019518050 -1.415229104 -0.280247499
N 0.747739400 -2.242325965 0.020115209
H -4.388773500 1.650082755 0.290290581
H -4.263662405 -1.542598383 1.366464759
H -4.102585760 -0.860097696 -1.891653645
H -0.202263491 1.334784030 1.966421245
H 4.733683799 2.172338219 -0.497926204
H 4.684939674 -2.595548281 -0.416090896

