10

O -3.400674411 -0.857664353 2.349333955
C -2.022323955 0.006259907 0.782490669
C 0.044595344 -1.464020850 -0.541657131
C 4.182145970 0.630294319 -1.476843492
C 2.614761088 -0.411175152 0.086036037
C -2.271276418 2.682731797 0.002960785
N -2.483964318 4.741706971 -0.639005919
H -0.275388749 -1.354685284 -2.578557262
H -0.107425941 -3.427915720 0.057502911
H 3.345378039 -0.484251617 2.017588944

