11

C -2.983922318 -0.348596739 -0.304792472
N -0.422248928 -1.192890580 0.153119670
C 1.482274962 0.481418124 0.172077081
N 1.333313672 2.827663435 0.058292438
C 4.333007663 -1.083545452 -0.419113211
N 4.177297292 -1.010907668 1.810924129
H -3.499089798 1.090677391 1.074891923
H -4.246909076 -1.958747011 -0.103982974
H -3.192151183 0.458509163 -2.194089080
H 0.018620454 -3.026094051 -0.019549784
H 2.997851395 3.739058106 0.243198719

