13

C -2.156538162 -1.265061961 0.085318905
O 0.075378926 -2.560014967 -0.844338987
C 2.169540480 -1.197926133 -0.580704712
C 1.393055643 1.467965237 -0.026846678
N -0.218666692 2.537428809 -1.988515243
C -1.400674887 1.463572985 0.237982659
H -2.624120713 -2.027113390 1.950285441
H -3.684240704 -1.676016978 -1.235384152
H 3.097407364 -1.680605762 2.597273809
H 3.747697291 -2.071677403 1.074084783
H 2.666793072 2.744058323 0.935368681
H -0.342917828 1.381360733 -3.515734506
H -2.434800788 2.737563486 1.458351615

