16

O -3.119139026 1.125561263 0.439991831
C -1.831439034 0.102281162 -1.925713370
C -0.441539366 -2.250935822 -1.199454071
C 1.561084610 -1.632924023 0.809823252
C 2.229478964 1.163089297 0.493832906
C -0.133053122 2.711766494 0.640816466
H -3.582429951 -0.208018841 1.628405442
H -3.322176737 -0.266323109 -3.307962085
H -1.692193072 -3.764554045 -0.472668786
H 0.433288746 -3.001164387 -2.915154051
H 3.238391553 -2.823238887 0.657807050
H 0.801945967 -1.933747786 2.711909320
H 3.522128904 1.759043210 2.000051605
H 3.114864125 1.449180490 -1.344876679
H -0.581637576 3.264223958 2.585180846
H -0.342894887 4.255180653 -0.672558554

