10

C 4.419774287 0.205539426 0.865638713
C 2.194732456 0.173088897 0.395334163
C -0.389983007 0.085493931 -0.192684337
C -2.138347413 2.039585450 0.473187233
O -4.363807912 1.747770408 0.917561055
N -3.555092210 -2.734836611 -0.292943114
C -1.457060592 -2.309419141 -1.176630639
H 6.387465371 0.259176769 1.283314617
H -1.289830110 3.947602310 0.394128518
H -0.275845326 -3.620389768 -2.256117526

