17

C -4.333329842 0.990855973 0.132441928
C -3.208528003 0.100411032 -2.008719457
N 0.470790682 -1.630712760 -1.097573456
C 0.827964472 -1.980909964 1.302493731
C 2.075134033 0.228121861 0.258253317
C 4.832478699 0.388276452 -0.402598611
H -2.541910918 0.010977438 2.314495153
H -4.177889437 2.969112610 0.640812252
H -5.903227776 -0.024515152 0.971060940
H -3.783672877 -1.675975499 -2.834678646
H -2.121982234 1.335226755 -3.217866576
H -1.244336937 -0.788461335 2.882257963
H 1.036166919 -3.671224081 2.432803668
H 1.166069773 2.033410184 0.691715785
H 5.926119314 1.117738988 1.189571994
H 5.127013416 1.655115152 -2.005680211
H 5.569352968 -1.469349348 -0.905141151

