10

C -1.947890458 -0.941110010 -0.293894610
C 0.523914171 0.172379060 0.704243857
C 2.725162611 -1.080069376 -0.450973823
N 4.398824840 -2.135262435 -1.328991887
C 0.650257594 4.999363380 -0.067544556
N 0.638843289 2.825047714 0.274518662
H -3.535407688 -0.021703334 0.637862956
H -2.005415933 -2.960981686 0.098581003
H -2.094322218 -0.645853172 -2.325026389
H 0.656472639 -0.132522903 2.743008278

