10

C -1.896054647 -1.070939750 -0.326250368
C 0.542497889 0.132501322 0.694285057
C 2.783367102 -0.874565987 -0.598679220
N 4.495343698 -1.735275993 -1.606061131
C 0.462506879 2.899894115 0.488351302
N 0.317582214 5.055417438 0.350529702
H -3.515466372 -0.329349765 0.703840533
H -1.812646709 -3.112335369 -0.081157539
H -2.126669246 -0.647106646 -2.326239404
H 0.749539194 -0.318239404 2.701381070

