10

C -1.932636003 -0.929346030 -0.389233202
C 0.490140778 0.223066484 0.620835163
C 2.801957094 -0.779367765 -0.484215107
N 4.592379018 -1.678040969 -1.308757040
C 0.481351662 3.340875388 -0.748316579
N 0.531402967 3.574312463 1.482597009
H -3.548417999 -0.002097124 0.482975164
H -1.963609918 -2.929308024 0.118205657
H -2.060610827 -0.738793720 -2.430873805
H 0.609872484 -0.058074081 2.656811066

