13

C 2.721236554 1.266817006 0.429436482
C 0.549359938 0.032812770 -0.970140946
C -0.380966840 -2.346715343 -0.065342194
N -3.429704762 -0.693866634 1.883419277
C -3.743452626 1.109918413 0.642282912
O -1.091410624 1.454524655 -2.083062474
H 3.623554719 2.655455887 -0.791370417
H 1.951272747 2.248127103 2.072902890
H 4.130796895 -0.096483331 1.067503699
H 1.430716033 -1.670730507 -2.282013331
H -1.792733626 -3.292746199 -1.197924659
H 0.738526002 -3.491580725 1.216691926
H -4.659250170 2.818421654 0.063253026

