28

C     4.48020   0.25893  -0.17500
N     3.47660  -0.48571   0.54294
C     2.52652  -1.21764  -0.10513
O     2.54460  -1.45541  -1.32265
N     1.60477  -1.68757   0.78936
N     0.52360  -2.18686   0.36631
C    -0.58128  -2.62342   0.19819
C    -1.80877  -3.39581   0.14412
C    -1.17673  -0.96560   2.40569
C    -2.03088   0.05816   1.62831
O    -1.60996   1.25579   2.33577
C    -0.19647   1.03706   2.06762
C    -0.26360   1.02034   0.51401
Br    0.98799   1.79817  -0.63150
C    -1.41260   0.39580   0.23270
Br   -2.18244   0.01756  -1.42899
C    -0.03798  -0.39560   2.63303
H     4.09734   1.21413  -0.57145
H     4.83727  -0.34443  -1.01441
H     5.32425   0.47348   0.49369
H     3.25374  -0.19275   1.50740
H    -1.83360  -4.11369   0.98111
H    -2.72658  -2.78940   0.17188
H    -1.66827  -3.87512  -0.78832
H    -1.51329  -2.01825   2.61836
H    -3.10411  -0.10569   1.63408
H     0.44270   1.79357   2.50715
H     0.87306  -0.76940   3.12447
28

C     4.47955   0.25860  -0.17421
N     3.47534  -0.48477   0.54495
C     2.52405  -1.21516  -0.10239
O     2.54405  -1.45610  -1.31866
N     1.59643  -1.68204   0.79177
N     0.52272  -2.19174   0.36041
C    -0.58882  -2.60534   0.22492
C    -1.80569  -3.39064   0.14905
C    -1.17132  -0.97802   2.38494
C    -2.02922   0.05502   1.62462
O    -1.60693   1.24677   2.33928
C    -0.19456   1.03453   2.06538
C    -0.26456   1.02258   0.51321
Br    0.98834   1.79848  -0.63196
C    -1.41385   0.39852   0.23147
Br   -2.18263   0.01778  -1.42984
C    -0.02982  -0.40071   2.62007
H     4.09723   1.21398  -0.57141
H     4.83697  -0.34479  -1.01403
H     5.32407   0.47343   0.49388
H     3.25388  -0.19244   1.50804
H    -1.83393  -4.11362   0.98110
H    -2.72703  -2.79032   0.17121
H    -1.66296  -3.87174  -0.78705
H    -1.51421  -2.01511   2.62355
H    -3.10352  -0.10692   1.63399
H     0.44315   1.79235   2.50741
H     0.87130  -0.76905   3.12688
28

C     4.47890   0.25827  -0.17341
N     3.47409  -0.48384   0.54696
C     2.52157  -1.21267  -0.09964
O     2.54349  -1.45679  -1.31468
N     1.58808  -1.67651   0.79417
N     0.52185  -2.19662   0.35452
C    -0.59635  -2.58727   0.25166
C    -1.80262  -3.38548   0.15399
C    -1.16591  -0.99045   2.36419
C    -2.02755   0.05188   1.62093
O    -1.60389   1.23774   2.34280
C    -0.19264   1.03201   2.06314
C    -0.26553   1.02482   0.51241
Br    0.98868   1.79879  -0.63242
C    -1.41509   0.40123   0.23024
Br   -2.18283   0.01801  -1.43069
C    -0.02166  -0.40581   2.60711
H     4.09711   1.21383  -0.57137
H     4.83667  -0.34515  -1.01364
H     5.32389   0.47338   0.49407
H     3.25402  -0.19213   1.50869
H    -1.83427  -4.11355   0.98109
H    -2.72748  -2.79125   0.17055
H    -1.65765  -3.86836  -0.78578
H    -1.51513  -2.01196   2.62874
H    -3.10293  -0.10816   1.63389
H     0.44360   1.79113   2.50767
H     0.86955  -0.76870   3.12930
28

C     4.47824   0.25794  -0.17262
N     3.47283  -0.48290   0.54897
C     2.51909  -1.21019  -0.09690
O     2.54294  -1.45748  -1.31069
N     1.57974  -1.67098   0.79657
N     0.52098  -2.20151   0.34862
C    -0.60388  -2.56920   0.27840
C    -1.79954  -3.38031   0.15892
C    -1.16051  -1.00287   2.34344
C    -2.02588   0.04874   1.61723
O    -1.60086   1.22872   2.34632
C    -0.19073   1.02949   2.06089
C    -0.26650   1.02706   0.51161
Br    0.98903   1.79910  -0.63288
C    -1.41634   0.40395   0.22901
Br   -2.18302   0.01824  -1.43153
C    -0.01350  -0.41092   2.59415
H     4.09700   1.21368  -0.57133
H     4.83637  -0.34551  -1.01325
H     5.32371   0.47333   0.49425
H     3.25416  -0.19182   1.50933
H    -1.83461  -4.11348   0.98107
H    -2.72792  -2.79217   0.16989
H    -1.65233  -3.86498  -0.78451
H    -1.51606  -2.00882   2.63393
H    -3.10234  -0.10939   1.63380
H     0.44404   1.78991   2.50792
H     0.86779  -0.76834   3.13172
28

C     4.47759   0.25761  -0.17182
N     3.47158  -0.48196   0.55097
C     2.51661  -1.20770  -0.09415
O     2.54238  -1.45817  -1.30670
N     1.57140  -1.66546   0.79898
N     0.52011  -2.20639   0.34272
C    -0.61142  -2.55112   0.30513
C    -1.79647  -3.37515   0.16385
C    -1.15510  -1.01530   2.32268
C    -2.02421   0.04560   1.61354
O    -1.59782   1.21969   2.34983
C    -0.18881   1.02696   2.05865
C    -0.26747   1.02930   0.51081
Br    0.98937   1.79941  -0.63334
C    -1.41758   0.40666   0.22778
Br   -2.18321   0.01846  -1.43238
C    -0.00534  -0.41602   2.58119
H     4.09689   1.21353  -0.57129
H     4.83607  -0.34587  -1.01287
H     5.32353   0.47328   0.49444
H     3.25431  -0.19152   1.50997
H    -1.83494  -4.11341   0.98106
H    -2.72837  -2.79309   0.16923
H    -1.64702  -3.86160  -0.78323
H    -1.51698  -2.00568   2.63912
H    -3.10175  -0.11063   1.63370
H     0.44449   1.78869   2.50818
H     0.86603  -0.76799   3.13413
28

C     4.47694   0.25728  -0.17103
N     3.47032  -0.48102   0.55298
C     2.51414  -1.20522  -0.09141
O     2.54183  -1.45885  -1.30272
N     1.56306  -1.65993   0.80138
N     0.51924  -2.21127   0.33683
C    -0.61895  -2.53305   0.33187
C    -1.79340  -3.36998   0.16879
C    -1.14969  -1.02772   2.30193
C    -2.02255   0.04246   1.60984
O    -1.59479   1.21067   2.35335
C    -0.18690   1.02444   2.05641
C    -0.26844   1.03154   0.51001
Br    0.98972   1.79972  -0.63381
C    -1.41882   0.40938   0.22654
Br   -2.18341   0.01869  -1.43323
C     0.00282  -0.42113   2.56823
H     4.09678   1.21338  -0.57126
H     4.83576  -0.34623  -1.01248
H     5.32335   0.47323   0.49463
H     3.25445  -0.19121   1.51062
H    -1.83528  -4.11334   0.98105
H    -2.72882  -2.79401   0.16856
H    -1.64171  -3.85822  -0.78196
H    -1.51790  -2.00253   2.64432
H    -3.10116  -0.11186   1.63361
H     0.44494   1.78746   2.50844
H     0.86428  -0.76764   3.13655
28

C     4.47628   0.25695  -0.17024
N     3.46907  -0.48008   0.55499
C     2.51166  -1.20273  -0.08866
O     2.54127  -1.45954  -1.29873
N     1.55471  -1.65440   0.80379
N     0.51836  -2.21615   0.33093
C    -0.62649  -2.51497   0.35861
C    -1.79032  -3.36482   0.17372
C    -1.14428  -1.04014   2.28118
C    -2.02088   0.03932   1.60615
O    -1.59175   1.20164   2.35687
C    -0.18498   1.02192   2.05417
C    -0.26941   1.03378   0.50921
Br    0.99006   1.80003  -0.63427
C    -1.42007   0.41210   0.22531
Br   -2.18360   0.01892  -1.43407
C     0.01098  -0.42623   2.55527
H     4.09667   1.21323  -0.57122
H     4.83546  -0.34659  -1.01209
H     5.32317   0.47318   0.49481
H     3.25459  -0.19090   1.51126
H    -1.83562  -4.11327   0.98104
H    -2.72927  -2.79494   0.16790
H    -1.63639  -3.85485  -0.78069
H    -1.51883  -1.99939   2.64951
H    -3.10057  -0.11310   1.63351
H     0.44538   1.78624   2.50870
H     0.86252  -0.76728   3.13896
28

C     4.47563   0.25662  -0.16944
N     3.46781  -0.47914   0.55700
C     2.50918  -1.20025  -0.08592
O     2.54072  -1.46023  -1.29475
N     1.54637  -1.64887   0.80619
N     0.51749  -2.22103   0.32504
C    -0.63402  -2.49690   0.38534
C    -1.78725  -3.35966   0.17866
C    -1.13888  -1.05257   2.26043
C    -2.01921   0.03617   1.60246
O    -1.58872   1.19262   2.36038
C    -0.18307   1.01939   2.05193
C    -0.27038   1.03602   0.50841
Br    0.99041   1.80034  -0.63473
C    -1.42131   0.41481   0.22408
Br   -2.18379   0.01914  -1.43492
C     0.01914  -0.43134   2.54231
H     4.09655   1.21308  -0.57118
H     4.83516  -0.34695  -1.01171
H     5.32299   0.47313   0.49500
H     3.25473  -0.19059   1.51190
H    -1.83595  -4.11320   0.98102
H    -2.72972  -2.79586   0.16724
H    -1.63108  -3.85147  -0.77942
H    -1.51975  -1.99625   2.65470
H    -3.09998  -0.11433   1.63342
H     0.44583   1.78502   2.50896
H     0.86077  -0.76693   3.14138
28

C     4.47498   0.25629  -0.16865
N     3.46656  -0.47820   0.55901
C     2.50670  -1.19776  -0.08317
O     2.54016  -1.46092  -1.29076
N     1.53803  -1.64334   0.80859
N     0.51662  -2.22592   0.31914
C    -0.64156  -2.47883   0.41208
C    -1.78417  -3.35449   0.18359
C    -1.13347  -1.06499   2.23967
C    -2.01755   0.03303   1.59876
O    -1.58568   1.18359   2.36390
C    -0.18115   1.01687   2.04969
C    -0.27135   1.03826   0.50761
Br    0.99076   1.80065  -0.63519
C    -1.42256   0.41753   0.22285
Br   -2.18398   0.01937  -1.43577
C     0.02730  -0.43644   2.52935
H     4.09644   1.21293  -0.57114
H     4.83486  -0.34732  -1.01132
H     5.32281   0.47308   0.49519
H     3.25487  -0.19029   1.51255
H    -1.83629  -4.11313   0.98101
H    -2.73017  -2.79678   0.16658
H    -1.62577  -3.84809  -0.77815
H    -1.52067  -1.99311   2.65989
H    -3.09939  -0.11557   1.63332
H     0.44628   1.78380   2.50922
H     0.85901  -0.76658   3.14379
28

C     4.47433   0.25596  -0.16786
N     3.46530  -0.47726   0.56102
C     2.50423  -1.19528  -0.08043
O     2.53961  -1.46160  -1.28677
N     1.52969  -1.63781   0.81100
N     0.51575  -2.23080   0.31325
C    -0.64909  -2.46075   0.43882
C    -1.78110  -3.34933   0.18853
C    -1.12806  -1.07742   2.21892
C    -2.01588   0.02989   1.59507
O    -1.58265   1.17457   2.36742
C    -0.17924   1.01435   2.04744
C    -0.27232   1.04050   0.50681
Br    0.99110   1.80096  -0.63565
C    -1.42380   0.42025   0.22161
Br   -2.18418   0.01960  -1.43661
C     0.03546  -0.44155   2.51639
H     4.09633   1.21278  -0.57110
H     4.83455  -0.34768  -1.01094
H     5.32263   0.47303   0.49537
H     3.25501  -0.18998   1.51319
H    -1.83662  -4.11306   0.98100
H    -2.73062  -2.79770   0.16591
H    -1.62045  -3.84471  -0.77687
H    -1.52160  -1.98996   2.66508
H    -3.09880  -0.11681   1.63323
H     0.44672   1.78257   2.50948
H     0.85725  -0.76622   3.14621
28

C     4.47367   0.25563  -0.16706
N     3.46404  -0.47632   0.56303
C     2.50175  -1.19279  -0.07768
O     2.53905  -1.46229  -1.28279
N     1.52134  -1.63228   0.81340
N     0.51487  -2.23568   0.30735
C    -0.65663  -2.44268   0.46555
C    -1.77802  -3.34416   0.19346
C    -1.12265  -1.08984   2.19817
C    -2.01421   0.02675   1.59137
O    -1.57961   1.16554   2.37094
C    -0.17732   1.01182   2.04520
C    -0.27328   1.04274   0.50601
Br    0.99145   1.80127  -0.63611
C    -1.42505   0.42296   0.22038
Br   -2.18437   0.01982  -1.43746
C     0.04362  -0.44665   2.50343
H     4.09622   1.21263  -0.57106
H     4.83425  -0.34804  -1.01055
H     5.32245   0.47298   0.49556
H     3.25515  -0.18967   1.51383
H    -1.83696  -4.11299   0.98099
H    -2.73107  -2.79863   0.16525
H    -1.61514  -3.84133  -0.77560
H    -1.52252  -1.98682   2.67028
H    -3.09821  -0.11804   1.63313
H     0.44717   1.78135   2.50974
H     0.85550  -0.76587   3.14863
28

C     4.47302   0.25530  -0.16627
N     3.46279  -0.47538   0.56504
C     2.49927  -1.19031  -0.07494
O     2.53850  -1.46298  -1.27880
N     1.51300  -1.62676   0.81580
N     0.51400  -2.24056   0.30145
C    -0.66416  -2.42460   0.49229
C    -1.77495  -3.33900   0.19840
C    -1.11725  -1.10227   2.17742
C    -2.01255   0.02361   1.58768
O    -1.57658   1.15652   2.37445
C    -0.17541   1.00930   2.04296
C    -0.27425   1.04497   0.50520
Br    0.99179   1.80158  -0.63657
C    -1.42629   0.42568   0.21915
Br   -2.18456   0.02005  -1.43831
C     0.05178  -0.45176   2.49047
H     4.09610   1.21248  -0.57103
H     4.83395  -0.34840  -1.01016
H     5.32227   0.47293   0.49575
H     3.25529  -0.18936   1.51448
H    -1.83730  -4.11292   0.98097
H    -2.73151  -2.79955   0.16459
H    -1.60982  -3.83795  -0.77433
H    -1.52344  -1.98368   2.67547
H    -3.09762  -0.11928   1.63304
H     0.44761   1.78013   2.51000
H     0.85374  -0.76552   3.15104
28

C     4.47237   0.25497  -0.16547
N     3.46153  -0.47444   0.56704
C     2.49679  -1.18782  -0.07219
O     2.53794  -1.46367  -1.27482
N     1.50466  -1.62123   0.81821
N     0.51313  -2.24544   0.29556
C    -0.67169  -2.40653   0.51903
C    -1.77187  -3.33383   0.20333
C    -1.11184  -1.11469   2.15667
C    -2.01088   0.02047   1.58398
O    -1.57354   1.14749   2.37797
C    -0.17349   1.00678   2.04072
C    -0.27522   1.04721   0.50440
Br    0.99214   1.80189  -0.63704
C    -1.42754   0.42840   0.21792
Br   -2.18476   0.02028  -1.43915
C     0.05994  -0.45686   2.47751
H     4.09599   1.21233  -0.57099
H     4.83365  -0.34876  -1.00978
H     5.32209   0.47288   0.49593
H     3.25543  -0.18906   1.51512
H    -1.83763  -4.11285   0.98096
H    -2.73196  -2.80047   0.16393
H    -1.60451  -3.83457  -0.77306
H    -1.52437  -1.98054   2.68066
H    -3.09703  -0.12051   1.63294
H     0.44806   1.77891   2.51026
H     0.85199  -0.76517   3.15346
28

C     4.47172   0.25464  -0.16468
N     3.46028  -0.47350   0.56905
C     2.49432  -1.18534  -0.06945
O     2.53739  -1.46435  -1.27083
N     1.49632  -1.61570   0.82061
N     0.51226  -2.25032   0.28966
C    -0.67923  -2.38846   0.54576
C    -1.76880  -3.32867   0.20827
C    -1.10643  -1.12712   2.13591
C    -2.00921   0.01733   1.58029
O    -1.57051   1.13847   2.38149
C    -0.17158   1.00425   2.03848
C    -0.27619   1.04945   0.50360
Br    0.99248   1.80220  -0.63750
C    -1.42878   0.43111   0.21669
Br   -2.18495   0.02050  -1.44000
C     0.06810  -0.46196   2.46455
H     4.09588   1.21218  -0.57095
H     4.83335  -0.34912  -1.00939
H     5.32192   0.47283   0.49612
H     3.25557  -0.18875   1.51576
H    -1.83797  -4.11278   0.98095
H    -2.73241  -2.80139   0.16326
H    -1.59920  -3.83119  -0.77179
H    -1.52529  -1.97739   2.68585
H    -3.09644  -0.12175   1.63285
H     0.44851   1.77769   2.51052
H     0.85023  -0.76481   3.15587
28

C     4.47106   0.25431  -0.16389
N     3.45902  -0.47257   0.57106
C     2.49184  -1.18286  -0.06670
O     2.53683  -1.46504  -1.26685
N     1.48797  -1.61017   0.82302
N     0.51139  -2.25521   0.28377
C    -0.68676  -2.37038   0.57250
C    -1.76573  -3.32350   0.21320
C    -1.10102  -1.13954   2.11516
C    -2.00755   0.01419   1.57660
O    -1.56747   1.12945   2.38500
C    -0.16966   1.00173   2.03624
C    -0.27716   1.05169   0.50280
Br    0.99283   1.80250  -0.63796
C    -1.43002   0.43383   0.21545
Br   -2.18514   0.02073  -1.44085
C     0.07626  -0.46707   2.45158
H     4.09577   1.21204  -0.57091
H     4.83304  -0.34948  -1.00901
H     5.32174   0.47278   0.49631
H     3.25571  -0.18844   1.51641
H    -1.83831  -4.11271   0.98093
H    -2.73286  -2.80232   0.16260
H    -1.59388  -3.82781  -0.77052
H    -1.52621  -1.97425   2.69104
H    -3.09585  -0.12298   1.63275
H     0.44895   1.77646   2.51077
H     0.84847  -0.76446   3.15829
28

C     4.47041   0.25398  -0.16309
N     3.45777  -0.47163   0.57307
C     2.48936  -1.18037  -0.06396
O     2.53628  -1.46573  -1.26286
N     1.47963  -1.60464   0.82542
N     0.51051  -2.26009   0.27787
C    -0.69430  -2.35231   0.59923
C    -1.76265  -3.31834   0.21814
C    -1.09561  -1.15197   2.09441
C    -2.00588   0.01105   1.57290
O    -1.56444   1.12042   2.38852
C    -0.16775   0.99921   2.03400
C    -0.27813   1.05393   0.50200
Br    0.99317   1.80281  -0.63842
C    -1.43127   0.43655   0.21422
Br   -2.18533   0.02096  -1.44169
C     0.08442  -0.47217   2.43862
H     4.09566   1.21189  -0.57087
H     4.83274  -0.34984  -1.00862
H     5.32156   0.47273   0.49649
H     3.25585  -0.18813   1.51705
H    -1.83864  -4.11264   0.98092
H    -2.73331  -2.80324   0.16194
H    -1.58857  -3.82443  -0.76924
H    -1.52714  -1.97111   2.69624
H    -3.09526  -0.12422   1.63266
H     0.44940   1.77524   2.51103
H     0.84672  -0.76411   3.16071
28

C     4.46976   0.25365  -0.16230
N     3.45651  -0.47069   0.57508
C     2.48688  -1.17789  -0.06121
O     2.53572  -1.46642  -1.25887
N     1.47129  -1.59911   0.82782
N     0.50964  -2.26497   0.27198
C    -0.70183  -2.33423   0.62597
C    -1.75958  -3.31317   0.22307
C    -1.09021  -1.16439   2.07366
C    -2.00421   0.00791   1.56921
O    -1.56140   1.11140   2.39204
C    -0.16583   0.99668   2.03175
C    -0.27910   1.05617   0.50120
Br    0.99352   1.80312  -0.63888
C    -1.43251   0.43926   0.21299
Br   -2.18553   0.02118  -1.44254
C     0.09258  -0.47728   2.42566
H     4.09554   1.21174  -0.57083
H     4.83244  -0.35020  -1.00823
H     5.32138   0.47268   0.49668
H     3.25599  -0.18783   1.51769
H    -1.83898  -4.11257   0.98091
H    -2.73376  -2.80416   0.16128
H    -1.58326  -3.82105  -0.76797
H    -1.52806  -1.96797   2.70143
H    -3.09467  -0.12545   1.63256
H     0.44985   1.77402   2.51129
H     0.84496  -0.76375   3.16312
28

C     4.46910   0.25332  -0.16151
N     3.45526  -0.46975   0.57709
C     2.48440  -1.17540  -0.05847
O     2.53517  -1.46711  -1.25489
N     1.46295  -1.59359   0.83023
N     0.50877  -2.26985   0.26608
C    -0.70937  -2.31616   0.65271
C    -1.75650  -3.30801   0.22801
C    -1.08480  -1.17681   2.05290
C    -2.00254   0.00477   1.56551
O    -1.55837   1.10237   2.39555
C    -0.16392   0.99416   2.02951
C    -0.28007   1.05841   0.50040
Br    0.99387   1.80343  -0.63934
C    -1.43376   0.44198   0.21176
Br   -2.18572   0.02141  -1.44339
C     0.10074  -0.48238   2.41270
H     4.09543   1.21159  -0.57080
H     4.83214  -0.35056  -1.00785
H     5.32120   0.47263   0.49687
H     3.25613  -0.18752   1.51834
H    -1.83932  -4.11250   0.98090
H    -2.73421  -2.80508   0.16062
H    -1.57794  -3.81767  -0.76670
H    -1.52898  -1.96482   2.70662
H    -3.09408  -0.12669   1.63247
H     0.45029   1.77280   2.51155
H     0.84321  -0.76340   3.16554
28

C     4.46845   0.25299  -0.16071
N     3.45400  -0.46881   0.57910
C     2.48193  -1.17292  -0.05573
O     2.53461  -1.46779  -1.25090
N     1.45460  -1.58806   0.83263
N     0.50790  -2.27473   0.26018
C    -0.71690  -2.29809   0.67944
C    -1.75343  -3.30284   0.23294
C    -1.07939  -1.18924   2.03215
C    -2.00088   0.00162   1.56182
O    -1.55533   1.09335   2.39907
C    -0.16200   0.99164   2.02727
C    -0.28103   1.06065   0.49960
Br    0.99421   1.80374  -0.63981
C    -1.43500   0.44470   0.21052
Br   -2.18591   0.02164  -1.44423
C     0.10890  -0.48749   2.39974
H     4.09532   1.21144  -0.57076
H     4.83183  -0.35092  -1.00746
H     5.32102   0.47258   0.49705
H     3.25627  -0.18721   1.51898
H    -1.83965  -4.11243   0.98088
H    -2.73466  -2.80600   0.15995
H    -1.57263  -3.81430  -0.76543
H    -1.52990  -1.96168   2.71181
H    -3.09349  -0.12792   1.63237
H     0.45074   1.77157   2.51181
H     0.84145  -0.76305   3.16795
28

C     4.46780   0.25266  -0.15992
N     3.45275  -0.46787   0.58111
C     2.47945  -1.17043  -0.05298
O     2.53406  -1.46848  -1.24692
N     1.44626  -1.58253   0.83503
N     0.50703  -2.27962   0.25429
C    -0.72443  -2.28001   0.70618
C    -1.75035  -3.29768   0.23788
C    -1.07398  -1.20166   2.01140
C    -1.99921  -0.00152   1.55813
O    -1.55230   1.08432   2.40259
C    -0.16009   0.98911   2.02503
C    -0.28200   1.06289   0.49880
Br    0.99456   1.80405  -0.64027
C    -1.43625   0.44741   0.20929
Br   -2.18611   0.02186  -1.44508
C     0.11706  -0.49259   2.38678
H     4.09521   1.21129  -0.57072
H     4.83153  -0.35128  -1.00707
H     5.32084   0.47253   0.49724
H     3.25641  -0.18691   1.51962
H    -1.83999  -4.11236   0.98087
H    -2.73511  -2.80693   0.15929
H    -1.56732  -3.81092  -0.76416
H    -1.53083  -1.95854   2.71700
H    -3.09290  -0.12916   1.63228
H     0.45119   1.77035   2.51207
H     0.83969  -0.76269   3.17037
28

C     4.46715   0.25233  -0.15912
N     3.45149  -0.46693   0.58312
C     2.47697  -1.16795  -0.05024
O     2.53350  -1.46917  -1.24293
N     1.43792  -1.57700   0.83744
N     0.50615  -2.28450   0.24839
C    -0.73197  -2.26194   0.73292
C    -1.74728  -3.29251   0.24281
C    -1.06858  -1.21409   1.99065
C    -1.99754  -0.00466   1.55443
O    -1.54926   1.07530   2.40610
C    -0.15817   0.98659   2.02279
C    -0.28297   1.06513   0.49800
Br    0.99490   1.80436  -0.64073
C    -1.43749   0.45013   0.20806
Br   -2.18630   0.02209  -1.44593
C     0.12522  -0.49770   2.37382
H     4.09510   1.21114  -0.57068
H     4.83123  -0.35164  -1.00669
H     5.32066   0.47248   0.49742
H     3.25655  -0.18660   1.52027
H    -1.84033  -4.11229   0.98086
H    -2.73555  -2.80785   0.15863
H    -1.56200  -3.80754  -0.76288
H    -1.53175  -1.95540   2.72220
H    -3.09231  -0.13039   1.63218
H     0.45163   1.76913   2.51233
H     0.83794  -0.76234   3.17278
28

C     4.46780   0.25266  -0.15992
N     3.45275  -0.46787   0.58111
C     2.47945  -1.17043  -0.05298
O     2.53406  -1.46848  -1.24692
N     1.44626  -1.58253   0.83503
N     0.50703  -2.27962   0.25429
C    -0.72443  -2.28001   0.70618
C    -1.75035  -3.29768   0.23788
C    -1.07398  -1.20166   2.01140
C    -1.99921  -0.00152   1.55813
O    -1.55230   1.08432   2.40259
C    -0.16009   0.98911   2.02503
C    -0.28200   1.06289   0.49880
Br    0.99456   1.80405  -0.64027
C    -1.43625   0.44741   0.20929
Br   -2.18611   0.02186  -1.44508
C     0.11706  -0.49259   2.38678
H     4.09521   1.21129  -0.57072
H     4.83153  -0.35128  -1.00707
H     5.32084   0.47253   0.49724
H     3.25641  -0.18691   1.51962
H    -1.83999  -4.11236   0.98087
H    -2.73511  -2.80693   0.15929
H    -1.56732  -3.81092  -0.76416
H    -1.53083  -1.95854   2.71700
H    -3.09290  -0.12916   1.63228
H     0.45119   1.77035   2.51207
H     0.83969  -0.76269   3.17037
28

C     4.46845   0.25299  -0.16071
N     3.45400  -0.46881   0.57910
C     2.48193  -1.17292  -0.05573
O     2.53461  -1.46779  -1.25090
N     1.45460  -1.58806   0.83263
N     0.50790  -2.27473   0.26018
C    -0.71690  -2.29809   0.67944
C    -1.75343  -3.30284   0.23294
C    -1.07939  -1.18924   2.03215
C    -2.00088   0.00162   1.56182
O    -1.55533   1.09335   2.39907
C    -0.16200   0.99164   2.02727
C    -0.28103   1.06065   0.49960
Br    0.99421   1.80374  -0.63981
C    -1.43500   0.44470   0.21052
Br   -2.18591   0.02164  -1.44423
C     0.10890  -0.48749   2.39974
H     4.09532   1.21144  -0.57076
H     4.83183  -0.35092  -1.00746
H     5.32102   0.47258   0.49705
H     3.25627  -0.18721   1.51898
H    -1.83965  -4.11243   0.98088
H    -2.73466  -2.80600   0.15995
H    -1.57263  -3.81430  -0.76543
H    -1.52990  -1.96168   2.71181
H    -3.09349  -0.12792   1.63237
H     0.45074   1.77157   2.51181
H     0.84145  -0.76305   3.16795
28

C     4.46910   0.25332  -0.16151
N     3.45526  -0.46975   0.57709
C     2.48440  -1.17540  -0.05847
O     2.53517  -1.46711  -1.25489
N     1.46295  -1.59359   0.83023
N     0.50877  -2.26985   0.26608
C    -0.70937  -2.31616   0.65271
C    -1.75650  -3.30801   0.22801
C    -1.08480  -1.17681   2.05290
C    -2.00254   0.00477   1.56551
O    -1.55837   1.10237   2.39555
C    -0.16392   0.99416   2.02951
C    -0.28007   1.05841   0.50040
Br    0.99387   1.80343  -0.63934
C    -1.43376   0.44198   0.21176
Br   -2.18572   0.02141  -1.44339
C     0.10074  -0.48238   2.41270
H     4.09543   1.21159  -0.57080
H     4.83214  -0.35056  -1.00785
H     5.32120   0.47263   0.49687
H     3.25613  -0.18752   1.51834
H    -1.83932  -4.11250   0.98090
H    -2.73421  -2.80508   0.16062
H    -1.57794  -3.81767  -0.76670
H    -1.52898  -1.96482   2.70662
H    -3.09408  -0.12669   1.63247
H     0.45029   1.77280   2.51155
H     0.84321  -0.76340   3.16554
28

C     4.46976   0.25365  -0.16230
N     3.45651  -0.47069   0.57508
C     2.48688  -1.17789  -0.06121
O     2.53572  -1.46642  -1.25887
N     1.47129  -1.59911   0.82782
N     0.50964  -2.26497   0.27198
C    -0.70183  -2.33423   0.62597
C    -1.75958  -3.31317   0.22307
C    -1.09021  -1.16439   2.07366
C    -2.00421   0.00791   1.56921
O    -1.56140   1.11140   2.39204
C    -0.16583   0.99668   2.03175
C    -0.27910   1.05617   0.50120
Br    0.99352   1.80312  -0.63888
C    -1.43251   0.43926   0.21299
Br   -2.18553   0.02118  -1.44254
C     0.09258  -0.47728   2.42566
H     4.09554   1.21174  -0.57083
H     4.83244  -0.35020  -1.00823
H     5.32138   0.47268   0.49668
H     3.25599  -0.18783   1.51769
H    -1.83898  -4.11257   0.98091
H    -2.73376  -2.80416   0.16128
H    -1.58326  -3.82105  -0.76797
H    -1.52806  -1.96797   2.70143
H    -3.09467  -0.12545   1.63256
H     0.44985   1.77402   2.51129
H     0.84496  -0.76375   3.16312
28

C     4.47041   0.25398  -0.16309
N     3.45777  -0.47163   0.57307
C     2.48936  -1.18037  -0.06396
O     2.53628  -1.46573  -1.26286
N     1.47963  -1.60464   0.82542
N     0.51051  -2.26009   0.27787
C    -0.69430  -2.35231   0.59923
C    -1.76265  -3.31834   0.21814
C    -1.09561  -1.15197   2.09441
C    -2.00588   0.01105   1.57290
O    -1.56444   1.12042   2.38852
C    -0.16775   0.99921   2.03400
C    -0.27813   1.05393   0.50200
Br    0.99317   1.80281  -0.63842
C    -1.43127   0.43655   0.21422
Br   -2.18533   0.02096  -1.44169
C     0.08442  -0.47217   2.43862
H     4.09566   1.21189  -0.57087
H     4.83274  -0.34984  -1.00862
H     5.32156   0.47273   0.49649
H     3.25585  -0.18813   1.51705
H    -1.83864  -4.11264   0.98092
H    -2.73331  -2.80324   0.16194
H    -1.58857  -3.82443  -0.76924
H    -1.52714  -1.97111   2.69624
H    -3.09526  -0.12422   1.63266
H     0.44940   1.77524   2.51103
H     0.84672  -0.76411   3.16071
28

C     4.47106   0.25431  -0.16389
N     3.45902  -0.47257   0.57106
C     2.49184  -1.18286  -0.06670
O     2.53683  -1.46504  -1.26685
N     1.48797  -1.61017   0.82302
N     0.51139  -2.25521   0.28377
C    -0.68676  -2.37038   0.57250
C    -1.76573  -3.32350   0.21320
C    -1.10102  -1.13954   2.11516
C    -2.00755   0.01419   1.57660
O    -1.56747   1.12945   2.38500
C    -0.16966   1.00173   2.03624
C    -0.27716   1.05169   0.50280
Br    0.99283   1.80250  -0.63796
C    -1.43002   0.43383   0.21545
Br   -2.18514   0.02073  -1.44085
C     0.07626  -0.46707   2.45158
H     4.09577   1.21204  -0.57091
H     4.83304  -0.34948  -1.00901
H     5.32174   0.47278   0.49631
H     3.25571  -0.18844   1.51641
H    -1.83831  -4.11271   0.98093
H    -2.73286  -2.80232   0.16260
H    -1.59388  -3.82781  -0.77052
H    -1.52621  -1.97425   2.69104
H    -3.09585  -0.12298   1.63275
H     0.44895   1.77646   2.51077
H     0.84847  -0.76446   3.15829
28

C     4.47172   0.25464  -0.16468
N     3.46028  -0.47350   0.56905
C     2.49432  -1.18534  -0.06945
O     2.53739  -1.46435  -1.27083
N     1.49632  -1.61570   0.82061
N     0.51226  -2.25032   0.28966
C    -0.67923  -2.38846   0.54576
C    -1.76880  -3.32867   0.20827
C    -1.10643  -1.12712   2.13591
C    -2.00921   0.01733   1.58029
O    -1.57051   1.13847   2.38149
C    -0.17158   1.00425   2.03848
C    -0.27619   1.04945   0.50360
Br    0.99248   1.80220  -0.63750
C    -1.42878   0.43111   0.21669
Br   -2.18495   0.02050  -1.44000
C     0.06810  -0.46196   2.46455
H     4.09588   1.21218  -0.57095
H     4.83335  -0.34912  -1.00939
H     5.32192   0.47283   0.49612
H     3.25557  -0.18875   1.51576
H    -1.83797  -4.11278   0.98095
H    -2.73241  -2.80139   0.16326
H    -1.59920  -3.83119  -0.77179
H    -1.52529  -1.97739   2.68585
H    -3.09644  -0.12175   1.63285
H     0.44851   1.77769   2.51052
H     0.85023  -0.76481   3.15587
28

C     4.47237   0.25497  -0.16547
N     3.46153  -0.47444   0.56704
C     2.49679  -1.18782  -0.07219
O     2.53794  -1.46367  -1.27482
N     1.50466  -1.62123   0.81821
N     0.51313  -2.24544   0.29556
C    -0.67169  -2.40653   0.51903
C    -1.77187  -3.33383   0.20333
C    -1.11184  -1.11469   2.15667
C    -2.01088   0.02047   1.58398
O    -1.57354   1.14749   2.37797
C    -0.17349   1.00678   2.04072
C    -0.27522   1.04721   0.50440
Br    0.99214   1.80189  -0.63704
C    -1.42754   0.42840   0.21792
Br   -2.18476   0.02028  -1.43915
C     0.05994  -0.45686   2.47751
H     4.09599   1.21233  -0.57099
H     4.83365  -0.34876  -1.00978
H     5.32209   0.47288   0.49593
H     3.25543  -0.18906   1.51512
H    -1.83763  -4.11285   0.98096
H    -2.73196  -2.80047   0.16393
H    -1.60451  -3.83457  -0.77306
H    -1.52437  -1.98054   2.68066
H    -3.09703  -0.12051   1.63294
H     0.44806   1.77891   2.51026
H     0.85199  -0.76517   3.15346
28

C     4.47302   0.25530  -0.16627
N     3.46279  -0.47538   0.56504
C     2.49927  -1.19031  -0.07494
O     2.53850  -1.46298  -1.27880
N     1.51300  -1.62676   0.81580
N     0.51400  -2.24056   0.30145
C    -0.66416  -2.42460   0.49229
C    -1.77495  -3.33900   0.19840
C    -1.11725  -1.10227   2.17742
C    -2.01255   0.02361   1.58768
O    -1.57658   1.15652   2.37445
C    -0.17541   1.00930   2.04296
C    -0.27425   1.04497   0.50520
Br    0.99179   1.80158  -0.63657
C    -1.42629   0.42568   0.21915
Br   -2.18456   0.02005  -1.43831
C     0.05178  -0.45176   2.49047
H     4.09610   1.21248  -0.57103
H     4.83395  -0.34840  -1.01016
H     5.32227   0.47293   0.49575
H     3.25529  -0.18936   1.51448
H    -1.83730  -4.11292   0.98097
H    -2.73151  -2.79955   0.16459
H    -1.60982  -3.83795  -0.77433
H    -1.52344  -1.98368   2.67547
H    -3.09762  -0.11928   1.63304
H     0.44761   1.78013   2.51000
H     0.85374  -0.76552   3.15104
28

C     4.47367   0.25563  -0.16706
N     3.46404  -0.47632   0.56303
C     2.50175  -1.19279  -0.07768
O     2.53905  -1.46229  -1.28279
N     1.52134  -1.63228   0.81340
N     0.51487  -2.23568   0.30735
C    -0.65663  -2.44268   0.46555
C    -1.77802  -3.34416   0.19346
C    -1.12265  -1.08984   2.19817
C    -2.01421   0.02675   1.59137
O    -1.57961   1.16554   2.37094
C    -0.17732   1.01182   2.04520
C    -0.27328   1.04274   0.50601
Br    0.99145   1.80127  -0.63611
C    -1.42505   0.42296   0.22038
Br   -2.18437   0.01982  -1.43746
C     0.04362  -0.44665   2.50343
H     4.09622   1.21263  -0.57106
H     4.83425  -0.34804  -1.01055
H     5.32245   0.47298   0.49556
H     3.25515  -0.18967   1.51383
H    -1.83696  -4.11299   0.98099
H    -2.73107  -2.79863   0.16525
H    -1.61514  -3.84133  -0.77560
H    -1.52252  -1.98682   2.67028
H    -3.09821  -0.11804   1.63313
H     0.44717   1.78135   2.50974
H     0.85550  -0.76587   3.14863
28

C     4.47433   0.25596  -0.16786
N     3.46530  -0.47726   0.56102
C     2.50423  -1.19528  -0.08043
O     2.53961  -1.46160  -1.28677
N     1.52969  -1.63781   0.81100
N     0.51575  -2.23080   0.31325
C    -0.64909  -2.46075   0.43882
C    -1.78110  -3.34933   0.18853
C    -1.12806  -1.07742   2.21892
C    -2.01588   0.02989   1.59507
O    -1.58265   1.17457   2.36742
C    -0.17924   1.01435   2.04744
C    -0.27232   1.04050   0.50681
Br    0.99110   1.80096  -0.63565
C    -1.42380   0.42025   0.22161
Br   -2.18418   0.01960  -1.43661
C     0.03546  -0.44155   2.51639
H     4.09633   1.21278  -0.57110
H     4.83455  -0.34768  -1.01094
H     5.32263   0.47303   0.49537
H     3.25501  -0.18998   1.51319
H    -1.83662  -4.11306   0.98100
H    -2.73062  -2.79770   0.16591
H    -1.62045  -3.84471  -0.77687
H    -1.52160  -1.98996   2.66508
H    -3.09880  -0.11681   1.63323
H     0.44672   1.78257   2.50948
H     0.85725  -0.76622   3.14621
28

C     4.47498   0.25629  -0.16865
N     3.46656  -0.47820   0.55901
C     2.50670  -1.19776  -0.08317
O     2.54016  -1.46092  -1.29076
N     1.53803  -1.64334   0.80859
N     0.51662  -2.22592   0.31914
C    -0.64156  -2.47883   0.41208
C    -1.78417  -3.35449   0.18359
C    -1.13347  -1.06499   2.23967
C    -2.01755   0.03303   1.59876
O    -1.58568   1.18359   2.36390
C    -0.18115   1.01687   2.04969
C    -0.27135   1.03826   0.50761
Br    0.99076   1.80065  -0.63519
C    -1.42256   0.41753   0.22285
Br   -2.18398   0.01937  -1.43577
C     0.02730  -0.43644   2.52935
H     4.09644   1.21293  -0.57114
H     4.83486  -0.34732  -1.01132
H     5.32281   0.47308   0.49519
H     3.25487  -0.19029   1.51255
H    -1.83629  -4.11313   0.98101
H    -2.73017  -2.79678   0.16658
H    -1.62577  -3.84809  -0.77815
H    -1.52067  -1.99311   2.65989
H    -3.09939  -0.11557   1.63332
H     0.44628   1.78380   2.50922
H     0.85901  -0.76658   3.14379
28

C     4.47563   0.25662  -0.16944
N     3.46781  -0.47914   0.55700
C     2.50918  -1.20025  -0.08592
O     2.54072  -1.46023  -1.29475
N     1.54637  -1.64887   0.80619
N     0.51749  -2.22103   0.32504
C    -0.63402  -2.49690   0.38534
C    -1.78725  -3.35966   0.17866
C    -1.13888  -1.05257   2.26043
C    -2.01921   0.03617   1.60246
O    -1.58872   1.19262   2.36038
C    -0.18307   1.01939   2.05193
C    -0.27038   1.03602   0.50841
Br    0.99041   1.80034  -0.63473
C    -1.42131   0.41481   0.22408
Br   -2.18379   0.01914  -1.43492
C     0.01914  -0.43134   2.54231
H     4.09655   1.21308  -0.57118
H     4.83516  -0.34695  -1.01171
H     5.32299   0.47313   0.49500
H     3.25473  -0.19059   1.51190
H    -1.83595  -4.11320   0.98102
H    -2.72972  -2.79586   0.16724
H    -1.63108  -3.85147  -0.77942
H    -1.51975  -1.99625   2.65470
H    -3.09998  -0.11433   1.63342
H     0.44583   1.78502   2.50896
H     0.86077  -0.76693   3.14138
28

C     4.47628   0.25695  -0.17024
N     3.46907  -0.48008   0.55499
C     2.51166  -1.20273  -0.08866
O     2.54127  -1.45954  -1.29873
N     1.55471  -1.65440   0.80379
N     0.51836  -2.21615   0.33093
C    -0.62649  -2.51497   0.35861
C    -1.79032  -3.36482   0.17372
C    -1.14428  -1.04014   2.28118
C    -2.02088   0.03932   1.60615
O    -1.59175   1.20164   2.35687
C    -0.18498   1.02192   2.05417
C    -0.26941   1.03378   0.50921
Br    0.99006   1.80003  -0.63427
C    -1.42007   0.41210   0.22531
Br   -2.18360   0.01892  -1.43407
C     0.01098  -0.42623   2.55527
H     4.09667   1.21323  -0.57122
H     4.83546  -0.34659  -1.01209
H     5.32317   0.47318   0.49481
H     3.25459  -0.19090   1.51126
H    -1.83562  -4.11327   0.98104
H    -2.72927  -2.79494   0.16790
H    -1.63639  -3.85485  -0.78069
H    -1.51883  -1.99939   2.64951
H    -3.10057  -0.11310   1.63351
H     0.44538   1.78624   2.50870
H     0.86252  -0.76728   3.13896
28

C     4.47694   0.25728  -0.17103
N     3.47032  -0.48102   0.55298
C     2.51414  -1.20522  -0.09141
O     2.54183  -1.45885  -1.30272
N     1.56306  -1.65993   0.80138
N     0.51924  -2.21127   0.33683
C    -0.61895  -2.53305   0.33187
C    -1.79340  -3.36998   0.16879
C    -1.14969  -1.02772   2.30193
C    -2.02255   0.04246   1.60984
O    -1.59479   1.21067   2.35335
C    -0.18690   1.02444   2.05641
C    -0.26844   1.03154   0.51001
Br    0.98972   1.79972  -0.63381
C    -1.41882   0.40938   0.22654
Br   -2.18341   0.01869  -1.43323
C     0.00282  -0.42113   2.56823
H     4.09678   1.21338  -0.57126
H     4.83576  -0.34623  -1.01248
H     5.32335   0.47323   0.49463
H     3.25445  -0.19121   1.51062
H    -1.83528  -4.11334   0.98105
H    -2.72882  -2.79401   0.16856
H    -1.64171  -3.85822  -0.78196
H    -1.51790  -2.00253   2.64432
H    -3.10116  -0.11186   1.63361
H     0.44494   1.78746   2.50844
H     0.86428  -0.76764   3.13655
28

C     4.47759   0.25761  -0.17182
N     3.47158  -0.48196   0.55097
C     2.51661  -1.20770  -0.09415
O     2.54238  -1.45817  -1.30670
N     1.57140  -1.66546   0.79898
N     0.52011  -2.20639   0.34272
C    -0.61142  -2.55112   0.30513
C    -1.79647  -3.37515   0.16385
C    -1.15510  -1.01530   2.32268
C    -2.02421   0.04560   1.61354
O    -1.59782   1.21969   2.34983
C    -0.18881   1.02696   2.05865
C    -0.26747   1.02930   0.51081
Br    0.98937   1.79941  -0.63334
C    -1.41758   0.40666   0.22778
Br   -2.18321   0.01846  -1.43238
C    -0.00534  -0.41602   2.58119
H     4.09689   1.21353  -0.57129
H     4.83607  -0.34587  -1.01287
H     5.32353   0.47328   0.49444
H     3.25431  -0.19152   1.50997
H    -1.83494  -4.11341   0.98106
H    -2.72837  -2.79309   0.16923
H    -1.64702  -3.86160  -0.78323
H    -1.51698  -2.00568   2.63912
H    -3.10175  -0.11063   1.63370
H     0.44449   1.78869   2.50818
H     0.86603  -0.76799   3.13413
28

C     4.47824   0.25794  -0.17262
N     3.47283  -0.48290   0.54897
C     2.51909  -1.21019  -0.09690
O     2.54294  -1.45748  -1.31069
N     1.57974  -1.67098   0.79657
N     0.52098  -2.20151   0.34862
C    -0.60388  -2.56920   0.27840
C    -1.79954  -3.38031   0.15892
C    -1.16051  -1.00287   2.34344
C    -2.02588   0.04874   1.61723
O    -1.60086   1.22872   2.34632
C    -0.19073   1.02949   2.06089
C    -0.26650   1.02706   0.51161
Br    0.98903   1.79910  -0.63288
C    -1.41634   0.40395   0.22901
Br   -2.18302   0.01824  -1.43153
C    -0.01350  -0.41092   2.59415
H     4.09700   1.21368  -0.57133
H     4.83637  -0.34551  -1.01325
H     5.32371   0.47333   0.49425
H     3.25416  -0.19182   1.50933
H    -1.83461  -4.11348   0.98107
H    -2.72792  -2.79217   0.16989
H    -1.65233  -3.86498  -0.78451
H    -1.51606  -2.00882   2.63393
H    -3.10234  -0.10939   1.63380
H     0.44404   1.78991   2.50792
H     0.86779  -0.76834   3.13172
28

C     4.47890   0.25827  -0.17341
N     3.47409  -0.48384   0.54696
C     2.52157  -1.21267  -0.09964
O     2.54349  -1.45679  -1.31468
N     1.58808  -1.67651   0.79417
N     0.52185  -2.19662   0.35452
C    -0.59635  -2.58727   0.25166
C    -1.80262  -3.38548   0.15399
C    -1.16591  -0.99045   2.36419
C    -2.02755   0.05188   1.62093
O    -1.60389   1.23774   2.34280
C    -0.19264   1.03201   2.06314
C    -0.26553   1.02482   0.51241
Br    0.98868   1.79879  -0.63242
C    -1.41509   0.40123   0.23024
Br   -2.18283   0.01801  -1.43069
C    -0.02166  -0.40581   2.60711
H     4.09711   1.21383  -0.57137
H     4.83667  -0.34515  -1.01364
H     5.32389   0.47338   0.49407
H     3.25402  -0.19213   1.50869
H    -1.83427  -4.11355   0.98109
H    -2.72748  -2.79125   0.17055
H    -1.65765  -3.86836  -0.78578
H    -1.51513  -2.01196   2.62874
H    -3.10293  -0.10816   1.63389
H     0.44360   1.79113   2.50767
H     0.86955  -0.76870   3.12930
28

C     4.47955   0.25860  -0.17421
N     3.47534  -0.48477   0.54495
C     2.52405  -1.21516  -0.10239
O     2.54405  -1.45610  -1.31866
N     1.59643  -1.68204   0.79177
N     0.52272  -2.19174   0.36041
C    -0.58882  -2.60534   0.22492
C    -1.80569  -3.39064   0.14905
C    -1.17132  -0.97802   2.38494
C    -2.02922   0.05502   1.62462
O    -1.60693   1.24677   2.33928
C    -0.19456   1.03453   2.06538
C    -0.26456   1.02258   0.51321
Br    0.98834   1.79848  -0.63196
C    -1.41385   0.39852   0.23147
Br   -2.18263   0.01778  -1.42984
C    -0.02982  -0.40071   2.62007
H     4.09723   1.21398  -0.57141
H     4.83697  -0.34479  -1.01403
H     5.32407   0.47343   0.49388
H     3.25388  -0.19244   1.50804
H    -1.83393  -4.11362   0.98110
H    -2.72703  -2.79032   0.17121
H    -1.66296  -3.87174  -0.78705
H    -1.51421  -2.01511   2.62355
H    -3.10352  -0.10692   1.63399
H     0.44315   1.79235   2.50741
H     0.87130  -0.76905   3.12688
