11

O -3.666855677 -0.493856112 -0.230349300
C -2.044882938 1.657357274 -0.378727156
C 0.579384814 1.156786965 0.431375606
C 2.993975491 -2.015041536 0.374815423
O 1.994051158 -0.252178811 -1.131431282
H -3.099594646 -1.711769614 -1.447852183
H -2.012101784 2.387854681 -2.323803642
H -2.889055421 3.089144933 0.835402491
H 1.416909108 1.678512135 2.216081940
H 1.764643867 -2.990834861 1.668622461
H 4.957531817 -2.485507450 0.068267188

