9

C -3.434097524 -0.094839080 0.737425199
C -1.149911594 1.473066855 0.180079183
C 0.797375815 1.773005093 1.721851624
H 2.399458582 2.940237708 1.211011145
H 0.858278079 0.860619809 3.557790209
H -1.127410795 2.426544234 -1.640653116
H -5.147132763 1.059115280 0.701167893
H -3.299024474 -0.992934860 2.588080102
H -3.680539921 -1.573108333 -0.684274384

