13

C -2.960991569 -0.426932161 0.411194238
C -0.647654421 0.935761744 -0.465963414
C 1.470880858 1.288917769 1.101904519
C 2.525923948 -0.909819301 -1.128478868
O 4.141723594 -0.142390070 -2.634710322
H -4.131087743 0.894185219 1.488306363
H -2.463703298 -1.972970053 1.683415842
H -4.080975117 -1.163369165 -1.151246232
H 0.497589625 -1.446157118 -2.036010825
H -0.789404440 2.095131323 -2.150991306
H 2.705789990 2.885520783 0.797324566
H 1.386237474 0.567828459 3.016958492
H 2.654010152 -2.538627821 0.162885699

