9

N 3.407938915 1.541876187 -0.983456920
C 3.467531334 -0.792639689 -0.283455687
C 0.844550919 0.004227582 -0.032121225
C -1.747865499 -0.709518347 -0.560418937
N -0.886997211 0.262385317 1.954472375
H 1.318739518 2.352598155 -1.002505681
H -3.030822770 0.549996663 -1.537187927
H -2.145329592 -2.711256457 -0.760397352
H -0.653438929 -1.120124427 3.264576921

