16

C -1.942607824 -1.227824737 2.370663653
C -0.799603708 0.963911880 0.885289182
C 2.094465081 1.077129246 1.197157619
C 3.397892696 -0.312100137 -0.842065400
C 1.365189477 -0.815815404 -2.692786954
C -1.048024100 0.639975632 -1.985888826
H -1.594134881 -1.011749956 4.393200542
H -3.983872692 -1.331909435 2.089269071
H -1.135788121 -3.041187180 1.795159675
H -1.683609822 2.718963214 1.518634936
H 2.791826215 2.977996024 0.643345826
H 2.843689333 0.773102378 3.095245858
H -1.042330298 2.481251068 -2.923827894
H 1.135017717 -2.858788113 -2.294728240
H 1.957706792 -0.746783236 -4.666207235
H -2.782022770 -0.327180189 -2.545434558

