16

C -1.961013435 -1.265342680 2.489521512
C -0.874884236 0.863299799 0.901449193
C 2.012801001 1.343831037 0.987001801
C 2.559626534 1.228150148 -1.885887070
C 1.311747701 -1.208835163 -2.628818969
C -0.889067292 0.484586873 -1.964008008
H -1.696531656 -0.878181865 4.499482443
H -3.986148660 -1.484644659 2.148566939
H -1.050724046 -3.070136821 2.077499441
H -1.863363633 2.613412504 1.370779514
H 2.523305317 3.146530341 1.837831637
H 3.067673941 -0.146089813 1.959698526
H 0.125453343 2.428532358 -2.622167587
H 1.559071409 -2.828832004 -1.391463530
H 1.446076747 -1.705680425 -4.615405406
H -2.566552210 0.461540548 -3.153095420

