16

C 5.113146871 0.912440124 -0.299343295
C 3.495720870 -1.409102083 -0.074851617
C 1.183534867 -1.604171065 -0.894406657
C -1.131070439 -1.884201378 -1.704970152
N -3.336659976 -1.491579935 -0.255725582
C -4.761419952 0.813948619 -0.694638946
C -3.305869006 0.436385308 1.671226617
H 6.821888066 0.506212993 -1.385604472
H 5.717266782 1.565222354 1.564291135
H 4.095686653 2.440388519 -1.231781503
H -1.488712370 -2.560450454 -3.608598293
H 4.343848020 -3.044656736 0.840751701
H -6.798777698 0.608618367 -0.704882547
H -3.998948077 2.150049107 -2.052038386
H -1.573754600 1.513754284 1.892213023
H -4.274348807 -0.036814359 3.411192721

