14

C 3.877480582 -0.185132651 -0.442459662
N 2.723541378 -2.058821558 1.240671190
C 1.180833390 -0.816226759 -0.458803374
C -1.091770466 0.587128496 -0.076695593
C -3.774961976 -0.055389951 0.051772033
N -2.369566535 0.841966870 2.281746351
H 5.151120671 -0.950506087 -1.851473873
H 4.408317406 1.640063295 0.331574577
H 2.504929110 -1.645389091 3.094361503
H 0.205065142 -0.449762698 -3.298146696
H -0.617875002 1.081340425 -2.933783972
H -4.374395367 -2.012579336 0.171780640
H -5.113089706 1.205013381 -0.857129749
H -2.738178610 2.660592333 2.748187223

