14

O 3.220060945 -0.526723778 1.493758582
C 2.746459674 -0.582261147 -1.173962063
C 0.242071592 -1.100087453 -2.182025314
O -0.762024595 3.103920532 1.178795661
C -1.778435845 -1.250818604 -0.280515443
C -2.661484265 1.501657637 0.254468970
H 3.678976116 -2.184054427 2.061108410
H 4.169412504 -1.710973378 -2.169684042
H 3.038382241 1.362663291 -1.870070837
H 0.349397964 2.154072315 2.265111375
H -1.204005817 -2.077876706 1.533988394
H -3.431961397 -2.244934996 -1.011273084
H -3.373806531 2.350762267 -1.484002549
H -4.236905225 1.354218748 1.590616570

