14

O 3.914571409 -0.970666630 1.331674088
C 2.850635116 -0.329330962 -1.108119545
C 0.186333610 0.472836348 -0.969122856
O -0.189648057 2.729952519 0.683002447
C -1.855947119 -1.204164554 -0.011100629
C -3.331091501 1.156636959 -0.018249123
H 3.176142331 -2.536354896 1.868049492
H 3.031457736 -1.918736350 -2.422109066
H 4.050335040 1.201683702 -1.789615880
H 0.585643908 2.408881550 2.333604952
H -1.706949471 -2.084618342 1.872101802
H -2.487744262 -2.564870826 -1.426226762
H -4.023513931 1.853024374 -1.805703950
H -4.204083630 1.935291352 1.668129639

