14

C 2.884929431 -0.881292184 1.770942136
C 0.868258025 0.768049874 0.586923499
O 2.098004311 2.662524275 -0.832266849
C -0.873408133 -0.777571712 -1.085215478
C -5.153999896 0.644252026 -1.801913178
O -2.759526449 0.894286735 -2.160637451
H 4.028350874 -1.781757605 0.309050554
H 4.126561603 0.276396445 2.935537128
H 2.045793560 -2.342962895 2.959098460
H -0.283112721 1.634827109 2.084176278
H 0.839298633 3.698932323 -1.630388521
H 0.173512158 -1.573783362 -2.673299890
H -1.848758903 -2.266343288 -0.033820485
H -5.417893101 -1.084650582 -0.589689736

