18

C -1.562792299 -2.183459541 -1.825539366
C -0.432995045 0.450919267 -1.529505964
C -1.593224089 1.729858790 2.730635750
N 0.428592663 1.178689401 0.976376872
C 2.280482993 -0.527880177 2.052278646
C 1.708392881 0.924644675 -3.382335375
O 2.178003183 -0.368464091 -5.182832600
H -3.137070523 -2.461741630 -0.523878134
H -2.252841988 -2.445300087 -3.747411621
H -0.153106178 -3.646467101 -1.478056526
H -1.866684089 1.854935643 -2.068212269
H -2.883652883 3.111915717 1.907012054
H -2.699022975 0.053122261 3.282613280
H -0.802676119 2.548265406 4.451570856
H 1.477373333 -2.349109229 2.659725761
H 3.776599160 -0.917474789 0.684634244
H 3.150356772 0.357651702 3.699501149
H 2.832379757 2.638674647 -2.937818765

