18

C -1.518935611 -3.033115763 -1.952591455
C -1.797905390 -0.357747624 -1.023291100
C -1.595998151 2.368953716 1.877346888
N 0.664980677 0.634836390 0.046167956
C 1.940518901 -0.992579422 1.868795442
C 2.312884332 2.066210028 -1.484525682
O 1.721229904 2.933139954 -3.496013777
H -1.312963457 -4.426847173 -0.437655317
H -3.208240406 -3.555895324 -3.012279549
H 0.117488695 -3.269845100 -3.230705111
H -2.261216631 0.926558438 -2.553458940
H -2.568591224 3.668337317 0.636998746
H -2.891053674 1.339931795 3.071013370
H -0.158575782 3.338831234 3.014856474
H 0.523695719 -1.810726029 3.116976442
H 2.937768082 -2.523755034 0.918274257
H 3.280992519 0.107860767 2.986578347
H 4.126780793 2.504066337 -0.549556942

