14

C -0.416993373 2.477769739 1.649629523
C 0.935686873 0.231754368 1.430748763
C -1.667475322 -2.897478573 -0.517890386
C -3.426702818 -1.108326583 -0.904061400
N -4.420968084 0.903651745 -0.840138409
C 2.923514539 -0.020066680 -0.380998607
C 4.609106080 -0.194138576 -1.886632473
H -1.233723064 2.919847223 3.477664763
H 0.211435182 4.079225967 0.533743979
H -2.685246493 2.046323401 0.343706638
H 1.006007041 -1.062049307 3.012374980
H -0.451045047 -3.438027153 -2.068835160
H -1.991873513 -4.281545659 0.953671794
H 6.114700394 -0.342405939 -3.211785494

