12

O -3.701243174 -2.949970006 1.746151178
C -2.204073826 -4.052117714 0.428112521
C -0.163918812 1.429405829 0.868235953
C 2.344179708 2.662478185 0.506117827
C 1.193229313 1.542734878 -1.811938345
C 0.156297774 -0.710592052 -0.760905443
N -0.556765662 -2.938735490 -1.298458883
H -2.065160531 -6.128606340 0.430553140
H -1.902150677 2.255682587 1.539306310
H 4.005963421 1.769869886 1.306734182
H 2.364251812 4.711589801 0.603073136
H 0.677358119 2.493124293 -3.542721684

