8

C -2.962931203 0.482109045 0.022772031
C -1.464765534 2.900110773 -0.088323456
C 0.728729341 3.087889475 -1.210583046
O 2.673556855 3.250333640 -2.206104885
H -2.168388162 4.617902717 0.770960411
H -4.798624313 0.704172917 -0.892563078
H -3.291934940 -0.092956573 1.976546473
H -1.972890042 -1.055153394 -0.924832362

