16

C -4.183228462 -2.784031435 1.119625615
O -2.187835863 -3.036698741 -0.640718502
C -0.978494083 -0.899975887 -1.401340392
C 3.662044019 3.953264212 -0.723294129
C 3.226509655 1.540631122 -1.234019335
C 1.942462919 -0.204027890 0.551233602
H -5.089284675 -4.623319485 1.313489197
H -5.572788131 -1.398401414 0.464218649
H -3.450825040 -2.181823114 2.964766013
H -2.184334257 0.812507438 -1.384605884
H 3.135010420 4.779367625 1.078489792
H 4.546894538 5.192084964 -2.090058183
H 3.705014010 0.740274131 -3.056447928
H 2.597244688 -2.144101157 0.474679568
H -0.364375139 0.116283314 0.851327666
H 2.192647767 0.470541106 2.515169914

