17

C 3.117607951 -0.996999548 -0.973730783
C 1.682840723 0.628046056 0.898331807
C 0.493692424 3.130255075 0.009692084
C -1.960029549 2.644453977 1.291048227
O -2.858060776 -1.397481458 -2.370630432
C -2.557545265 -2.017110068 0.216227509
C -1.058082318 -0.053404492 1.705864295
H 3.642846631 -2.811541917 -0.139240955
H 4.860684846 -0.060796193 -1.563649082
H 1.987666038 -1.371276909 -2.657883580
H 2.838989924 0.937297034 2.580522369
H 1.411601434 4.975626474 0.074659867
H -0.180177355 2.840730664 -1.956332602
H -4.177188141 -0.160318336 -2.508537863
H -1.565465449 -3.825163042 0.262691263
H -4.398591137 -2.272106990 1.124048783
H -1.275171844 -0.536702987 3.711093807

