17

C 3.112375167 -1.104749634 -0.791741843
C 1.575909644 0.652257208 0.869868771
C 0.306422644 2.944295215 -0.439261716
C -2.289704384 2.009079469 0.242775024
O -2.994020826 -0.775356859 -2.067269522
C -2.390312666 -2.226411202 0.156470835
C -1.113424157 -0.207702898 1.726143702
H 3.667447974 -2.813034649 0.227048156
H 4.839705050 -0.166019092 -1.420245552
H 2.058445522 -1.666271396 -2.474120470
H 2.715016483 1.226658701 2.491486071
H 0.636655440 4.752825232 0.512069368
H 0.633146294 3.232455413 -2.454722205
H -3.991868029 0.980460041 -1.233545883
H -1.216087989 -3.837824018 -0.375638814
H -4.112613875 -2.941640698 1.053361234
H -1.419731376 -0.307863768 3.761506673

