14

C 1.648307830 1.086682869 -0.975013964
O 2.487570502 -0.269235744 1.173249711
C 0.682262903 -2.220072625 1.586020718
C -1.854615334 -1.220861418 0.556810958
C -1.171887181 1.392677282 -0.510941277
O -1.663474658 3.365226324 1.223209780
H 2.005471321 0.012917072 -2.718259858
H 2.655399630 2.880311186 -1.056094458
H -0.538782480 3.153102846 2.634317373
H 0.653865818 -2.625823810 3.605456359
H 1.271879828 -3.936190272 0.586238964
H -3.302292661 -1.030745049 2.007367642
H -2.591838578 -2.450742215 -0.923423193
H -2.228188470 1.858191754 -2.216258648

