12

O -1.788316826 -2.254024843 -1.115107242
C -1.667623835 0.435809773 -1.391962097
C 0.566193486 1.337554009 0.147883504
O -0.296749041 1.828088550 2.651301778
C 1.678073416 -3.174907036 -0.459118600
C 2.392050156 -0.836219306 0.049408779
H -2.527567859 -2.668183136 0.497023614
H -3.426342258 1.307643443 -0.764530693
H -1.379593990 0.777388957 -3.400014991
H 1.363676411 3.069512247 -0.657412040
H 1.008208080 1.360819467 3.817643066
H 4.377802978 -0.588006727 0.508899182

