15

C 5.082031472 1.052855052 -0.886551046
C 3.325508457 -0.039344381 0.438072077
C 1.559074565 -1.138667931 1.748620445
C -0.788819646 -2.294635568 0.627551363
C -3.187886279 -0.849137719 1.302961854
O -4.953104264 -1.899983520 2.283178971
C -3.241493973 1.929706210 0.674032352
H 4.997243013 3.057060729 -1.302198178
H 6.682676950 -0.005394715 -1.602601912
H 1.766065168 -1.223918825 3.790554825
H -1.035085939 -4.232925745 1.283021502
H -0.624732572 -2.318340368 -1.432220293
H -5.163770196 2.640081680 0.828392646
H -2.028065359 2.952010211 1.994652714
H -2.491142367 2.276484957 -1.216338415

