15

C 4.368506168 1.634324253 0.248838210
C 2.791712662 -0.317184672 0.986319231
C 1.370126897 -2.277637330 0.839907654
C -1.367388665 -2.779240979 0.925266054
C -3.033373862 -0.493587450 1.476020932
O -4.427920934 -0.472657750 3.274542468
C -2.810283718 1.722593965 -0.305000020
H 5.435903570 2.679364267 1.642324862
H 4.744391422 2.005768971 -1.732274692
H 4.680984874 -0.782915933 2.032023466
H -1.793175859 -4.256322747 2.302737769
H -1.867656070 -3.573992305 -0.923538920
H -4.309175628 3.074816539 0.080066751
H -0.980570647 2.647408564 -0.046984733
H -2.903579308 1.095105095 -2.269118256

