17

C 3.825729639 -0.037529318 -1.466735404
C 1.586419148 0.712345982 0.143507200
O 0.121299819 2.525361585 -1.168897842
C -2.349875589 2.587958763 -0.102687264
C -2.769451782 -0.031076130 1.119058054
C -0.342791160 -1.321814178 0.721628128
O 0.095209278 -3.649066683 -0.010102854
H 4.952498532 1.632760316 -1.883342063
H 3.215170013 -0.829699354 -3.274211369
H 5.043741614 -1.381022226 -0.479726195
H 2.266027004 1.502979557 1.947603522
H -3.680798152 2.980161140 -1.623343527
H -2.472388839 4.106335562 1.299113314
H -3.299818084 0.157306906 3.088808902
H -4.209350788 -1.426601551 0.437550626
H -3.624698911 -4.119768964 2.198262257
H 1.636938538 -3.683439158 -1.002090640

