12

N -2.361972198 -1.842369607 -0.656541746
C -0.003496598 -1.379822647 -2.036728543
C -1.477277675 0.734304089 -0.872566619
C 0.123842219 1.733235013 1.254407307
N 2.232003336 -0.093214067 1.261676592
C 2.349428895 -1.808413420 -0.516436563
H -1.996287724 -2.586840895 1.074423403
H -0.043393838 -1.852247791 -4.024340705
H -2.658144476 2.013279707 -1.945164170
H -0.839286086 1.734102870 3.082022234
H 3.519592325 -0.048169100 2.664612744
H 0.814285557 3.641391277 0.875020901

