12

N -1.694442054 -2.366620811 -0.627703392
C -0.030769409 -0.711528449 -2.003374103
C -2.067421362 0.317440900 -0.386980194
C -0.041739987 1.691306979 1.290275065
N 1.866542227 0.047877818 2.319878945
C 1.994105034 0.663536643 -0.326898639
H -0.945848290 -3.265551718 0.888184696
H 0.091783620 -0.878174382 -4.035160937
H -3.874179344 1.124599544 -0.890977541
H -0.288461534 3.556582769 2.084233065
H 1.314402030 -1.732942880 2.756234584
H 3.676029050 1.553473587 -1.067711550

