12

N -1.867863959 -2.231702208 -0.483028851
C 0.082752675 -1.016942281 -1.994055617
C -1.756882176 0.465991515 -0.505400430
C 0.224311833 1.714828986 1.249833187
N 2.131523706 -0.081629007 2.019034660
C 2.484024638 0.123250659 -0.686215813
H -1.290727352 -3.091683138 1.129011469
H 0.078622981 -1.352293911 -4.005343704
H -3.353093923 1.519142063 -1.227666983
H -0.105977712 3.320705869 2.480910918
H 1.359327245 -1.743336827 2.580058668
H 1.673273852 2.618901819 -0.396752649

