14

O -0.811347392 -3.560024621 1.120533722
C -0.657095511 -1.585801321 -0.619786138
C -2.390769319 0.707076519 -0.228826388
C -0.253252195 2.557181681 0.317791690
C 1.922549949 -0.191100066 -0.493176056
O 3.332163071 -0.378749341 1.681977704
H 0.317826272 -3.188617906 2.498381266
H -0.915019789 -2.411338836 -2.494445628
H -3.592927059 1.060716124 -1.875074643
H -3.609093552 0.475626132 1.416909335
H 1.405591406 1.918903420 -1.391119146
H -0.183188784 4.361334431 -0.715430204
H 3.189150676 -0.625213129 -2.080678093
H 2.490751610 0.799178501 2.814981351

