12

C -2.254399425 -0.358189952 0.135934614
O -1.619759397 2.146715271 -0.538096150
C 0.878408141 2.071116400 -1.496104563
C 2.255040590 -0.211872484 -0.770736441
O 1.203207124 -0.734904569 3.009656004
C 0.250324895 -1.645007442 0.641871367
H -3.482679605 -0.316511230 1.790781747
H -3.230863886 -1.324179321 -1.420483431
H 0.894369864 1.768794008 -3.583162579
H 1.827507742 3.867168706 -1.157196412
H 2.866306690 -1.436242291 3.247529494
H 0.221170409 -3.701541543 0.527596756

