14

C -3.067968492 -1.719706105 -0.367514749
C -0.532954753 -0.548682339 -0.070140813
C 0.077412385 2.110082231 0.706551175
N 2.763313763 2.134090881 0.249985538
C 3.630391219 -0.175861938 0.858367728
O 5.599392319 -1.132224551 1.280838717
O 1.321063579 -1.956139472 0.697987900
H -3.850491438 -2.078976924 1.509868062
H -2.916071758 -3.518557076 -1.352840590
H -4.337708772 -0.463495810 -1.387353527
H 0.496919585 0.184623502 -2.817578949
H -0.364731995 2.294569541 2.722510022
H -0.919983230 3.559078776 -0.357436840
H 1.870432607 1.097679148 -2.325223771

