11

O -3.649764333 2.452418043 0.633385269
C -2.765377155 0.463185706 1.164155386
N -0.056595143 0.102648449 1.516068216
C 1.743932356 1.121166762 -0.627790640
C 2.632183097 -1.525806882 -1.201727676
C 1.092656067 -2.384078554 0.613693623
H -3.831825857 -1.313001875 1.349378630
H 0.459398714 0.703548929 3.274940992
H 0.600957852 2.097482331 -2.036038888
H 3.116276279 2.424865534 0.190344308
H 0.560153166 -4.131173253 1.537735097

