13

O 2.152116260 4.197918607 1.080351758
C 1.349936969 2.223616826 0.313461515
N 2.452576289 -0.093474906 0.394845027
C 0.914664407 -2.107042607 -0.620344137
C -1.608089620 -0.782130922 -1.084246748
C -3.054853925 0.249452673 1.071805547
N -1.039956802 1.924373667 -0.953470538
H 4.070842518 -0.345898172 1.349036533
H 0.727658830 -3.681992988 0.700536819
H 1.687851105 -2.830980679 -2.393875027
H -2.614645569 -1.370443577 -2.771263916
H -2.869836434 2.639423753 0.012370941
H -1.945310359 0.092941058 2.815556130

