13

C -2.980156075 -0.122256399 -0.104075268
N -0.922159137 0.976262997 1.535287959
C 0.053151344 -1.499694325 1.531832576
C 2.412169314 -1.660519467 0.374949593
C 2.789365131 0.605539493 -0.826871908
C 0.523853341 2.027243177 -0.541193600
H -4.244417416 -1.404162244 0.891891923
H -0.834512562 0.739756535 -2.101097623
H -4.054096446 1.320861624 -1.090191127
H -0.815465540 -2.891010003 2.748329463
H 3.590578564 -3.322779881 0.292621879
H 4.296368500 1.064819286 -2.127604131
H 0.331249393 4.034134570 -0.903252918

