14

O 2.869301226 2.503342458 -2.237438585
C 1.446085119 1.314907153 -0.546886457
C 2.301391112 -0.858126542 0.893529238
C 0.491864360 -3.129077851 0.289658997
C -1.921165819 -2.416079233 0.254027171
C -2.771305226 0.315968387 0.661875914
N -0.932557544 1.988250190 -0.519799860
H 2.088894830 -0.502874358 2.918518595
H 4.285979050 -1.266519431 0.508245432
H 4.592639743 1.952038143 -2.070859265
H -3.446115351 -3.768698441 0.008968735
H -2.867669447 0.743087895 2.686898454
H -4.618731645 0.747063709 -0.145101241
H -1.497783755 3.282939862 -1.794874723

