14

O 2.607877081 1.576447573 -2.419286722
C 1.478394371 1.586971212 -0.244540406
C 2.407177603 -0.294066443 1.466502854
C 1.096696717 -2.227841271 -0.468568213
C -1.414659125 -1.991531076 -0.471451765
C -2.552815866 0.340989476 0.845081177
N -0.927219464 2.483683070 0.030112805
H 1.560381216 -0.370635405 3.335711258
H 4.439150424 -0.525542870 1.486967208
H 2.489183534 -0.680778050 -2.533262246
H -2.618725186 -3.113855540 -1.693110685
H -2.517198346 0.172119846 2.901905937
H -4.498443737 0.742689163 0.303974069
H -1.528968790 3.207574145 -1.633269106

