13

C -4.031333164 -1.547512200 -0.664560874
N -2.283494026 0.124740368 0.625744445
C -0.075635343 0.737683732 -0.698500601
C 2.208596111 0.763876773 0.285621654
C 4.851061794 1.251822010 0.488991881
O 3.322102017 0.275980762 2.562302159
H -5.726977348 -1.778592408 0.482669576
H -4.604116409 -0.690184332 -2.452413867
H -1.902698244 -0.454137924 2.401980346
H -0.319023149 1.313910625 -2.647189469
H -3.244719566 -3.423599132 -1.076694873
H 6.210132149 -0.090285048 -0.259599029
H 5.533593038 3.165879247 0.772884341

