10

O -2.185088523 2.931711321 1.447924616
C -0.878228220 0.977859211 0.434962684
C -1.666351936 -0.920768317 -1.091757672
O 0.318875920 -2.465543514 -1.637227137
C 1.756189800 0.591759667 0.864760047
C 2.352391173 -1.518945721 -0.441861621
H -3.920451726 2.838235357 0.934478885
H 2.990479309 1.747319784 1.997645114
H -3.464050156 -1.415817432 -1.906463183
H 4.093925731 -2.543793973 -0.685974400

