10

O -2.600198802 2.784436271 0.930679704
C -0.872623368 0.951561915 0.418377352
C -1.551979872 -1.512342829 -0.362503385
O 0.475249680 -2.669300247 -1.119067465
C 1.872768592 1.371529168 -0.132564571
C 2.501144669 -0.987854010 -0.961895069
H -1.685747197 4.357211143 0.921757627
H 0.326176820 0.288712017 2.177090427
H -3.313156300 -2.540593533 -0.355586288
H 4.246055279 -1.821343512 -1.599802887

