15

C -3.420921409 -2.776982001 0.331322034
C -1.854520054 -0.948618326 0.994226167
C 0.944333958 -1.247903588 1.329821836
O 1.631998510 -3.758278737 0.760629599
H 3.368477446 -4.010408794 1.207799064
C 2.398400260 0.632089786 -0.341794764
C 1.987951046 3.333038732 0.440306943
O 1.297744623 4.992163713 -0.940673407
H 2.386150828 3.743556410 2.463621813
H 4.426742746 0.255822827 -0.130467958
H 1.883871810 0.386719374 -2.321430316
H 1.389335925 -0.829381653 3.320362392
H -2.568926348 0.949227574 1.324150220
H -5.422454673 -2.414468506 0.110331282
H -2.748243481 -4.678125511 -0.011051043

