9

C -1.207767109 -1.211120862 -1.393548522
C 0.855631329 0.280734123 -2.464563785
H 1.498972487 -0.147439550 -4.362695506
H 0.720793946 2.299250544 -2.067958857
C 1.388166223 -1.334819368 -0.213736245
C 1.931207559 -0.060183298 2.226620602
O 3.000931516 -1.036794742 3.963942696
H 1.296143061 1.938355732 2.321513710
H 2.221509139 -3.203099179 -0.379228632

