12

O -3.259551705 1.072306872 1.154746212
C -1.466011733 -1.125573660 -0.909109690
C 0.509619017 0.243130708 -2.292048344
C 1.196964527 -1.312599344 0.009879450
C 2.097381760 0.083454558 2.266928139
O 3.541072690 -0.782811186 3.785018116
H -3.894866573 2.309596152 -0.022177334
H -3.673160880 -0.785933372 0.197851283
H 0.979506391 -0.430168713 -4.167571703
H 0.664026309 2.273940988 -2.053652534
H 2.032973601 -3.170329968 -0.207326237
H 1.350623317 2.028052319 2.456844726

