14

C -3.868972317 0.978080215 -1.078820588
C -0.435101503 -0.077061954 0.390599851
C 1.342079620 1.816170066 0.455638196
N 3.539433051 0.580061525 0.891546065
C 3.205306266 -2.108125325 0.749810710
O 4.891929729 -3.574108164 1.290322610
C 0.550692895 -2.486843618 0.231150430
H -4.605127866 1.020669747 -3.017400158
H -4.178202282 2.751218099 -0.103430890
H -4.687149614 -0.614309466 -0.089956727
H 1.204852811 3.777457719 -0.080698902
H 5.181235404 1.343540208 1.471037667
H -0.367367237 -4.265127359 0.603677527
H -1.767134772 0.829388022 -1.742296023

