13

N -3.707006877 -0.518274926 0.430716394
C -1.418379769 0.198736412 -0.869763929
C 0.087612125 2.461268122 0.065529409
C 2.515931587 1.981882134 0.706349201
C 2.601920569 -0.710721687 0.209808015
O 4.612144873 -2.112524665 0.555720813
N 0.509134132 -1.760128877 -0.631722612
H -5.229279687 0.355795159 -0.312355533
H -3.605421833 -0.085114021 2.289839613
H -0.850575574 4.287795228 0.125593901
H -1.872047415 0.424962046 -2.877772093
H 5.884509510 -0.945398724 1.170910363
H 0.211326239 -3.608579868 -0.959125657

