10

N 3.648008853 -0.805051694 -1.125664877
C 1.473739617 -0.657098214 -2.077664169
C -0.932768532 -1.628765416 -0.910906498
O -3.030040272 0.061683061 -1.389281860
C -2.937717985 2.180981297 -0.199692934
N -2.910916397 4.086975016 0.849290768
H -1.505181088 -3.394375160 -1.803811578
H -0.734654634 -1.916077940 1.123467201
H 1.267844960 0.195446361 -3.946835988
H 3.609555005 -1.607902386 0.628280646

