10

O 5.904306942 1.001898342 0.343820267
C 4.180865000 -0.270405768 -0.352533001
C 1.417018259 0.385381562 0.235333811
N -0.244056183 -1.311700496 -0.906843643
C -2.502812560 -0.592538895 -0.394984129
C -4.133454209 1.070591039 0.364625585
O 0.816825387 2.171854903 1.521943733
H 4.419074389 -2.017260868 -1.473797934
H -4.338576062 -1.522918511 -1.201732023
H -5.507455782 1.101550649 1.875896882

