16

C 3.618496735 2.612219898 -1.875865891
C 2.849722378 1.458297247 0.669271999
C 0.660687465 -0.299023686 0.527404174
O -1.582748600 0.699538552 0.722437025
C -3.763320678 -0.401401243 0.489089543
C -3.858760275 -3.120659764 -0.037100766
H 4.117290248 1.138635806 -3.231517391
H 5.244012049 3.868031253 -1.666719998
H 2.061991366 3.702993760 -2.678053043
H 4.459874105 0.437627255 1.468017602
H 2.404186128 2.972581014 2.004334121
H 0.809222943 -2.260710279 -0.024577306
H -5.346606508 0.828486055 0.839779266
H -2.909446927 -3.592757021 -1.830503960
H -5.802975594 -3.783912116 -0.130490464
H -2.851034245 -4.203776550 1.433700156

