16

C 4.389313886 1.420155223 -1.544341334
C 1.844827800 1.919800776 -0.293023219
C 0.664958340 -0.413924269 0.706993692
O -1.037511874 -0.191902519 2.568295822
C -2.901595625 -1.767019782 1.867611510
C -4.256205508 -1.538648497 -0.588922016
H 5.728554797 0.610035718 -0.201225086
H 5.201284774 3.159899700 -2.293664362
H 4.188774619 0.095738174 -3.115092083
H 2.042223451 3.236750969 1.298857539
H 0.594432042 2.889054760 -1.639354893
H 1.201492916 -2.308435671 0.174723340
H -3.757449280 -2.744206874 3.451583897
H -3.586810809 0.151009734 -1.574718058
H -6.299604369 -1.375019304 -0.272378510
H -3.979005892 -3.122068422 -1.889054119

