14

C 2.067843470 1.102407262 0.607420904
C 1.927257824 -1.661698864 -0.236297912
C -0.753917273 -1.618086479 -1.236232412
O -2.637164566 -1.339792295 0.589349680
C -2.611943450 1.344667732 0.912408981
C -0.326144582 2.168540172 -0.647289326
H 1.943382951 1.313360942 2.660800278
H 3.782475811 2.057452697 -0.015765248
H 2.210559971 -3.108883633 1.207956119
H 3.237673760 -2.037377816 -1.786038931
H -1.281287263 -3.038472683 -2.642734893
H -2.396805746 1.885736875 2.900436391
H -4.407460340 2.095310431 0.214537243
H -0.734558522 0.430746781 -2.490862159

