15

C 2.945155173 0.685832236 -2.160072706
C 1.829650900 -0.934233069 -0.122427513
O 2.890820803 -2.823091016 0.681505179
C -0.647091131 -0.289800216 0.891813272
O -1.118952060 -2.007754110 3.168773722
C -3.122183412 -0.274586409 -0.383670207
C -2.187306419 2.067574524 0.904767156
H 4.088969886 -0.482887291 -3.406741093
H 1.503401854 1.687598562 -3.233080176
H 4.177251201 2.082698059 -1.269608698
H 0.132839470 -3.366993085 2.883992958
H -3.148262804 -0.292101789 -2.435560495
H -2.872367155 -2.357376290 2.282263531
H -1.416043406 3.662039937 -0.145562712
H -2.967948255 2.607150557 2.724920500

