12

C -0.351926644 1.162167979 1.992949882
C -2.128622259 2.965331457 2.659455360
H -3.359252446 2.947579975 4.301518590
C -2.721588138 3.305746740 -0.020284925
H -3.804828663 4.703417095 -1.057700423
C -2.612261718 0.350173451 -0.993263295
H -3.423102720 -0.367702135 -2.745625284
C -1.842714501 -1.250201041 1.380316074
H -3.298217788 -1.821606676 2.719552109
H -0.737566059 -2.877834076 0.752457139
C -0.355281324 1.970047781 -0.793561290
H 1.055817746 2.512464469 -2.158488265

