17

C 3.448456665 -2.109101993 -0.190394556
C 0.509369932 -0.069000175 0.252116998
C -1.888282808 -1.673581783 0.132923430
C -3.016242947 0.830002201 -0.831093669
C -1.545802376 3.043185037 0.502945751
C 0.419985131 1.923769522 2.261979268
C -0.499182305 1.756294887 -1.771677863
H 3.046595766 -3.751566506 0.966251020
H 3.147933028 -2.413224141 -2.191174027
H 5.382511683 -1.431397922 0.119348923
H -2.548848802 -2.471207476 1.916174486
H -1.899271226 -3.076020219 -1.380415983
H -4.818759779 1.029244984 -1.773718956
H -2.385709105 4.910831847 0.534687878
H -0.204516725 1.191602335 4.097943610
H 2.803022767 -0.078462638 0.918610571
H 0.183627824 2.400333241 -3.581331113

