14

O -3.804887604 0.585463553 -1.278004241
C -2.434385086 -1.103153628 0.249023479
C 0.361228670 -0.468551829 0.387776034
C 1.650991864 -0.269441989 -2.151042158
C 2.317380198 2.589431729 3.174027292
O 0.519170222 1.993775995 1.650324432
H -3.718031123 2.231714680 -0.518464050
H -3.206588143 -1.176384068 2.170769595
H -2.647497173 -2.976289469 -0.589887723
H 1.325723700 -1.825695079 1.616896386
H 1.562311723 -2.085700342 -3.123093769
H 0.718264207 1.141062989 -3.324673292
H 3.633556076 0.245058720 -1.917406814
H 3.604743365 0.896945617 3.302186402

