14

C 4.669007450 0.290494841 -1.057094520
N 2.087526706 1.065236424 -1.476505155
C 0.411820040 -0.017522126 -0.188087635
N 0.636810492 -1.891407811 1.559186588
C -3.889083841 -0.061463097 0.861798525
O -2.050433159 0.728739186 -0.683158312
N -6.028363191 0.898679403 0.027934763
H 4.958486412 -1.725828061 -1.451396156
H 5.296661085 0.653373828 0.890157230
H 5.909664051 1.359036529 -2.303699413
H -0.913031627 -2.193056137 2.631818758
H 2.343733790 -2.138326758 2.346001952
H -7.629480742 0.510893599 0.963272302
H -6.120029894 2.022266280 -1.519700421

