11

C -2.721673894 -0.040758520 1.158095695
C -0.516719342 1.380175913 0.511656803
C 2.283608241 -0.799201158 -1.169392289
H -4.258400274 -0.199243161 -0.172447354
H -2.912098496 -0.823334832 3.030724372
H -0.364449198 -0.950892366 -0.006690046
H 0.725707158 1.988813838 2.018310554
H -0.581734348 2.637982478 -1.101144055
H 2.722324885 -2.577960108 -0.209382070
H 3.842703934 0.523840397 -0.951632496
H 1.841639114 -1.116938537 -3.156733086

