12

C -3.434025904 -0.475123295 -0.025685781
C -0.795418267 0.590454584 0.068793476
C 1.232987526 -1.305659419 -0.043909015
C 3.622928464 -0.669178439 0.217165342
N 5.793364598 -0.130075140 0.670913964
N -0.246205595 2.923530394 0.227030563
H -4.844261387 1.020016677 0.094783126
H -3.718525608 -1.518337267 -1.784810458
H -3.733333672 -1.800595605 1.528207250
H 0.800964443 -3.279624640 -0.357332149
H 6.911693955 0.414497460 -0.787956967
H -1.838692124 3.994296573 0.313406769

