12

C -3.247395550 -0.483175512 -0.135064074
C -0.551746946 0.420423509 0.037021190
C 1.400910403 -1.500545609 -0.125858065
C 3.651119417 -0.305142581 0.056864316
N 4.791107549 1.703768929 0.301385579
N 0.122986532 2.726569720 0.302770181
H -4.574268789 1.074331922 0.086966500
H -3.574104687 -1.380465853 -1.963811647
H -3.623980985 -1.890903953 1.324507605
H 1.112493259 -3.497498630 -0.346925503
H 5.832506174 -0.815158894 0.059587827
H -1.342092470 3.952765041 0.401941912

