13

C -1.400688814 2.413299730 0.033273598
C -1.263501236 -2.054923337 1.512295472
O -2.414767688 -3.910429053 0.915750093
C -0.256938842 -0.195916789 -0.464690797
O -0.933046491 -1.027352480 -2.879446334
C 2.511125409 -0.131720922 -0.133278963
C 4.746210283 -0.092266842 0.210397968
H -3.453098834 2.301849843 -0.119671726
H -0.698849199 3.727599506 -1.386108538
H -0.877198357 3.113340873 1.900233059
H -0.863409857 -1.580205955 3.505293844
H -1.676223506 -2.685526494 -2.673890411
H 6.740246644 -0.055707350 0.477364340

