14

C -3.207802991 0.588637953 0.431812322
C -1.173971889 -1.434716961 0.211816699
C 1.366601537 -0.388186085 -0.539951124
C 3.262234511 0.440240746 1.287833576
O 3.494899406 -1.882733760 -0.051835641
C 1.271698773 1.747862249 -4.911506026
N 1.378809905 0.783306596 -2.935674171
H -2.690584025 2.017236661 1.828113664
H -4.995605717 -0.250121070 1.018068728
H -3.515053373 1.540695977 -1.370639240
H -0.910517668 -2.411123105 2.009462176
H -1.710391682 -2.861061283 -1.182170145
H 4.601790761 1.895765935 0.749792852
H 2.854688786 0.262796105 3.291590764

