13

O 4.394431699 0.214571901 -2.082775027
C 2.253771431 0.127503790 -1.376154349
C 0.201895656 2.163546779 -1.038197467
H 0.855609275 3.568276035 0.322404662
H -0.541715883 3.093261154 -2.721711783
C -1.402591201 0.103311478 0.206117342
O -2.746904818 0.436746623 2.405948846
H -4.443497776 0.924858724 1.991439499
C -1.860990571 -1.990707023 -1.582175012
H -3.073280664 -3.484537622 -0.882614425
H -1.955051576 -1.675203565 -3.604816894
C 0.660995793 -1.878460447 -0.190739601
H 1.272638062 -3.419806641 1.001223690

