10

C -1.424333030 1.616464470 0.188515828
O -1.494790504 0.057192259 -1.988982175
C 0.727398860 -1.369613836 -1.802915621
C 1.333208395 -0.770764787 0.926763152
N 2.362257811 -1.084001556 2.935888277
H -3.254562998 1.641849086 1.141814798
H -0.765083344 3.530962448 -0.229964193
H 0.427200615 0.549076536 2.612687870
H 2.241389965 -0.693462346 -3.046324382
H 0.403728969 -3.383505077 -2.140471012

