11

C -3.699208582 -0.092716521 0.759889261
C -1.585553200 1.172704847 -0.654878447
C 0.795285986 0.920631690 -0.090099080
N 3.001988119 0.768804479 0.548833990
C 4.811388524 -0.939501626 -0.370198897
O 5.801950097 -0.776427389 -2.389343218
H -2.985373722 -1.196286852 2.344532974
H -5.018027242 1.310586295 1.499949513
H -4.760150490 -1.356458886 -0.478492639
H -2.013509308 2.368477108 -2.262419668
H 5.328667546 -2.365968175 1.056005811

