13

N 4.311813251 -0.539595553 0.191813192
C 2.022855421 0.246962921 -0.261794796
O 2.219061112 2.187882747 -1.714319402
C -0.393267861 -0.771137138 0.630033197
C -2.630843206 -0.668001631 -1.139692730
C -2.542042519 1.051879727 1.073574066
H 4.761782136 -2.043328431 1.268468173
H 4.525398998 1.444067213 -1.298091936
H -0.250931044 -2.387835462 1.872363945
H -2.295566882 0.139899940 -2.986163817
H -3.902856996 -2.267040370 -1.092914109
H -3.756912862 0.663680243 2.670409895
H -2.141425399 3.024823702 0.725211937

