10

C -1.941936291 -2.851056298 0.661805710
C 0.666250195 -1.927846115 1.481468597
C 2.067694767 -0.697595725 -0.662366940
O 3.041187067 1.348081258 -0.578805745
H 2.156015256 -1.838023218 -2.427601555
H 0.557400647 -0.593538296 3.048436056
H 1.809830091 -3.540904165 2.099469624
H -3.147212627 -1.273693417 0.102774985
H -2.879647590 -3.848791611 2.200672659
H -1.810211041 -4.147721850 -0.938929322

