16

C 4.853324627 1.975288350 0.040230379
O 2.941926840 1.585261388 -1.510740265
C 0.925301525 0.367361852 -1.079318966
C -0.184328535 -0.706987834 1.259098023
H 0.670683360 -2.397660016 2.094199896
H -0.420489309 0.724443480 2.766033173
N -2.492251939 -1.193823141 -0.249217459
C -4.855282440 -0.367908927 0.828539119
H -4.853598090 1.647709051 1.362850034
H -5.277249364 -1.482540241 2.512058839
H -6.377751177 -0.675390857 -0.528712602
C -1.537549678 0.271672791 -2.443946476
H -2.452329169 2.130031862 -2.660712122
H -1.640009060 -0.740228740 -4.242906561
H 4.893387067 0.955531606 1.808526521
H 6.470697584 2.836009732 -0.837018490

