18

C 4.903056795 1.643494074 -0.080216587
O 2.886640200 1.606275067 -1.526916926
C 1.076393575 -0.009555589 -1.225696849
C -0.125784045 -0.860559942 1.204545239
N -2.471506450 -1.247284268 -0.250380945
C -4.787183665 -0.329191330 0.848006454
C -1.475842032 0.137472265 -2.464259898
H 4.735289631 0.980838251 1.847392763
H 6.287034251 3.031916241 -0.633704576
H 5.082585483 -1.976646005 -1.082639422
H 3.747870957 -2.502833177 -1.551482212
H 0.588877702 -2.540729556 2.166346559
H -0.235155497 0.712602342 2.579753005
H -4.701381727 1.690775116 1.362048601
H -5.228701355 -1.410188316 2.548638173
H -6.338819380 -0.590730843 -0.485868391
H -2.187394763 2.088312927 -2.612465203
H -1.753116765 -0.825114519 -4.268414613

