10

C 0.052134879 1.867795059 -0.300536090
C 1.421279686 -0.627773822 -0.282998657
O -0.053290050 -2.852605155 0.471404068
C -2.395402474 -2.886902305 1.098492921
H 1.407750796 3.305960733 -0.889962323
H -0.651290953 2.394603138 1.563610891
H 2.137238389 -1.109747808 -2.153400593
H 3.010783811 -0.607908189 1.026975876
H -1.519285229 1.898650961 -1.633248715
H -3.149079941 -0.912587164 0.980269727

