10

C 0.015816422 1.636397226 -0.209200657
C 1.572811211 -0.808909532 -0.123847227
O -0.259053616 -2.540604796 -0.984679894
C -2.419051999 -1.349849777 -0.035438695
H 0.206814443 2.698125714 -1.967586299
H 0.081392432 2.864383686 1.432939220
H 3.234656699 -0.839904782 -1.347336724
H 2.140093539 -1.245590733 1.824427243
H -2.253569571 0.973503714 -0.727896330
H -2.264975258 -1.276242091 2.056028864

