9

C -1.102622256 -1.902074256 -0.195628190
H -0.543593269 -3.676659784 -1.039240294
C -0.997415609 -0.955176054 2.136402639
H -0.320523894 -1.659368793 3.930680757
C -1.795655747 1.667942254 1.226224782
H -2.948006826 3.095246878 2.121192158
O -0.015252943 2.452216919 -0.654767425
C -1.910440849 0.637101718 -1.311415128
H -3.175734868 1.072434826 -2.853228255

