10

C -1.741424859 0.211592748 0.836437645
C -0.894248959 2.287892421 -0.744039656
N 1.527748046 2.202782595 -0.682828403
C 1.999774552 -0.119597252 0.747976863
N 1.118909560 -2.494549128 -0.368676345
C -1.281969246 -2.169766472 -0.446563921
H 0.450639002 0.131012482 2.480263894
H -2.028955325 3.644887441 -1.770746719
H 3.882188967 -0.231356902 1.555968347
H -2.643616261 -3.440733336 -1.292077032

