13

O 2.766764856 -1.260286094 2.326220432
C 2.984804008 0.619961656 0.939233833
C -0.233262010 1.147335916 -1.381146363
C -2.516410481 0.994296597 0.283987192
C -1.609223267 -0.962708974 -1.505714123
H 0.704974312 -3.022595469 1.259854518
H 4.241688670 0.547930493 -0.714766551
H 2.579675507 2.506292850 1.701512747
H 0.583014600 2.447998446 -2.714327413
H -2.199068339 0.687768790 2.295838209
H -4.238800054 2.021846364 -0.163653079
H -0.487309269 -3.263258421 0.313553922
H -2.336481040 -2.327983319 -2.827536370

