15

C -1.460199427 0.437861732 -2.459711158
C 0.024092874 -0.570291225 -0.247099908
C -1.563869670 -1.403382090 1.995505245
C 1.512363634 2.302608512 1.340642275
O -0.193686629 3.714851036 1.766776140
C 4.228995191 2.253718821 1.797523382
C 3.698312738 0.855885024 -0.157053041
H -2.476082214 2.147461619 -1.922629526
H -2.849811309 -0.967852639 -3.060816295
H -0.251619358 0.862814159 -4.077220684
H 1.187947378 -2.179890151 -0.793004633
H -2.870912954 0.075692432 2.572912574
H -2.653378851 -3.066114595 1.430950624
H -0.398728716 -1.932054100 3.612898346
H 4.192973534 -0.168359064 -1.852198299

