9

O -3.835269203 1.297252822 -1.469754959
C -0.170664058 -1.184130773 0.761106982
C 2.364268688 -0.719908288 -0.124458912
C 4.473018738 -0.365727730 -0.864604334
C -2.207748285 0.512081406 0.229769872
N -1.474391931 0.863966060 2.433477753
H -4.820889274 2.660203824 -0.760901531
H -0.574735219 -3.127934019 1.281252643
H 6.348792126 -0.040526254 -1.513957486

