10

N -2.545468592 1.977299321 -0.757228225
C -1.732272481 -0.349556398 -0.297712972
O -1.699020104 -1.022778492 2.060549240
C 1.307579003 -1.771883219 0.797538294
C 2.955557454 -0.226168470 -0.772316308
N 4.265679197 1.039338616 -1.952665475
H -3.069192714 3.127887267 0.681387468
H -2.622544965 2.630833304 -2.536064597
H 2.050396214 -1.744491223 2.724015472
H 1.089286969 -3.660480686 0.052495193

