17

C -3.958880176 -0.904822449 0.231402935
C -2.431889570 -1.438925948 -2.058438473
N -0.062464462 1.716665516 -2.754130393
C 0.289471668 -0.850080523 -1.735852869
C 1.569143120 -0.858343350 0.829302738
C 4.031453899 0.389512163 1.188504620
N 1.760911639 1.394374313 2.404523974
H -5.892176563 -0.335666534 -0.196738007
H -3.149639999 0.269276354 1.738276953
H -4.120935662 -2.833167735 1.009631932
H -0.383224591 1.703364282 -4.634358905
H -1.458922671 2.697547382 -1.889890644
H 1.466608112 -1.886132848 -3.075673019
H 1.205889760 -2.567759272 1.906963583
H 5.422619230 -0.413718137 2.457244574
H 4.789896575 1.424831124 -0.411022764
H 1.183273405 2.930135497 1.415625172

