13

O 4.363883010 -1.366429402 -0.885355303
N 3.062720515 0.859116720 -0.360334924
C 0.788477303 0.414859211 0.214608221
C -0.528616849 -2.095405484 0.219241395
C -3.473500374 0.835188876 -0.134039880
C -1.169940196 2.371677794 0.723836405
H 6.022942040 -0.775647461 -1.312641787
H -0.132157146 -3.281652940 -1.410901669
H -0.262284160 -3.158114117 1.968859653
H -3.346282046 0.699652427 -2.212175743
H -2.737136313 -1.695200344 0.399414895
H -0.880006414 4.090472049 -0.378060366
H -1.285035062 2.869462098 2.724563285

