14

C -3.041678623 -1.457877123 -0.622427711
C -2.660188612 1.365385140 -1.050184888
C -0.135196808 2.372800310 -0.077607915
C 2.165443875 1.251533090 -1.399487723
H 2.069046281 1.558286682 -3.440607593
H 2.319439055 -0.780854167 -1.079636837
H 3.909884170 2.114670845 -0.716569596
H -0.108150311 4.428163537 -0.300697114
H -0.001792160 2.015058090 1.957446898
H -2.826082811 1.784421287 -3.071084141
H -4.191050378 2.400607686 -0.123220045
H -4.923968032 -2.053979192 -1.219469502
H -1.676015334 -2.586412097 -1.679500273
H -2.836727393 -1.937317441 1.377095508

