18

C -3.401896875 -1.497955852 -0.970805525
C -2.310027954 1.161520030 -0.869621160
C -0.598559355 1.709700912 1.259711088
N 1.841821718 -2.502334440 2.968258454
C 2.844154111 -0.313414366 2.499901664
O 3.936781114 1.252306045 3.771364580
C 3.146611524 0.331368956 -0.684671208
H -4.959447962 -1.589535420 -2.314868885
H -1.983507355 -2.866702531 -1.574121982
H -4.102228564 -2.088554736 0.875714072
H -1.483419304 1.731801618 -2.671498282
H -3.854677862 2.520489512 -0.517142640
H 0.418109615 3.479501785 1.292423003
H -1.183565235 1.042070631 3.100460670
H 1.046400069 -3.236069892 1.394163476
H 3.276476130 2.319850656 -1.167831602
H 1.981804239 -0.731979386 -1.999382680
H 5.055779453 -0.442074139 -0.744584937

