11

C 2.415876900 -0.324964334 0.428933381
N -0.264504191 0.050887244 -0.038518779
C -1.305763789 2.444844625 -0.056419606
O -0.146681222 4.359555896 0.300676572
C -1.780402823 -2.021372459 -0.487965269
O -1.019495018 -4.157181006 -0.514362456
H 3.300021380 -1.190644659 -1.216056411
H 2.673616798 -1.571602523 2.045501465
H 3.254597429 1.511412573 0.799681546
H -3.353777739 2.414770031 -0.437374334
H -3.773487725 -1.515705388 -0.824096089

