11

C 3.135740931 0.435269632 0.610302359
N -0.742183491 -0.534071563 -0.258149760
C -1.291766569 1.850119657 0.049098354
O 0.476416510 3.301937789 0.564695519
C -2.507818520 -2.354071612 -0.837807035
O -2.020035137 -4.554144945 -1.117443397
H 3.429135009 -1.169465913 -0.608361969
H 2.949071120 -0.001320182 2.594065866
H 4.258885575 2.077849664 0.164139721
H -3.219147811 2.584184564 -0.120124164
H -4.468299544 -1.636283313 -1.040415476

