13

C 4.763986313 0.960815922 -0.151701620
O 2.223355496 1.370627731 0.711123254
C 0.428132685 0.382550639 -0.609489361
C -2.003799744 1.043303847 0.697512823
O -4.171656610 0.319597531 -0.704315572
C -4.468021168 -2.156318538 -1.155887777
O -6.194309926 -2.963221219 -2.348054989
H 4.709730103 -0.128689782 -1.895405205
H 5.768681166 -0.050428948 1.331906752
H 5.622766039 2.806803145 -0.446389083
H -2.982204935 -3.345434579 -0.303843980
H -2.161274402 3.085481227 0.958312621
H -2.011930480 0.173254211 2.581756663

