10

N -2.005545643 1.727438089 -0.609820271
C -2.074037841 -0.072260462 0.937609216
O -3.055822334 -1.368675058 2.445082013
C 1.775403401 -1.726066242 0.717130428
C 2.527419856 -0.037735658 -1.037617794
N 2.441773594 1.687694541 -2.466282793
H -3.605847267 2.743217149 -0.802187701
H 0.287688107 2.146612300 -1.941014955
H 2.416340299 -1.477909883 2.643645798
H 1.344211647 -3.633224164 0.116562786

