9

N -2.256872547 0.180114654 0.415164137
C -0.115690621 -0.842122810 -0.503705138
C 2.321663811 -0.030300152 -0.226554163
N 2.647959854 2.002537521 1.088606157
N 3.173965857 3.741085858 2.186578591
O -0.591858216 -2.931797001 -1.841256180
H -3.928715555 -0.615656010 0.010705998
H -2.214363385 1.783034002 1.420331459
H 1.020164170 -3.549830683 -2.424032089

