12

C -2.598233411 0.701681369 0.913991910
C -0.645292603 -0.682043354 -0.537464679
C 1.667329737 0.583202930 -1.434507806
O 0.771383464 1.836505862 -3.245710444
N 3.766136067 0.144568130 -0.304490040
H -3.882918080 -0.597433853 1.863773023
H -1.757831008 2.012055807 2.258424012
H -3.700977876 1.778458597 -0.461314934
H -1.267755236 -2.277882617 -1.674441249
H 0.588307137 -2.535343137 1.769535348
H 5.267921903 1.071603346 -1.040562894
H 1.990220777 -1.917095085 1.498380020

