16

C 3.697703869 0.767397446 -0.322833422
N 1.044029408 0.391059414 -0.041808584
C -0.159351458 -1.553728795 1.496257045
C -2.732299049 -0.349723431 1.385413459
C -1.999535029 2.197785498 0.314811610
C -0.585564634 -0.322733626 -2.379191741
C -1.947176029 -2.166751981 -0.660899209
H 4.604167261 1.159241493 1.488915497
H 4.006489331 2.361549126 -1.599229715
H 4.570316503 -0.913549582 -1.187140842
H 0.689664922 -2.530081554 3.080994280
H -4.234486546 -0.659428114 2.735830285
H -1.251850432 3.557740188 1.669178834
H -3.239182819 3.071657106 -1.059837080
H 0.611896003 -1.165535415 -3.848124708
H -2.952342463 -3.889276083 -1.093054667

