15

C -3.643695742 1.081451352 0.244061285
C -2.252770273 -0.993258344 -1.190275331
N 0.387310594 -0.448499869 -1.732347692
C 2.087549307 -0.732265415 0.316803949
O 2.414808430 -2.896523241 1.385979337
C 4.673129982 0.291684840 0.302752871
H -5.612492902 0.557373379 0.569272909
H -3.628263596 2.857058786 -0.811300659
H -2.776714057 1.423606543 2.086766072
H -2.289501617 -2.759496875 -0.127069380
H -3.196535178 -1.373589915 -2.986423616
H 0.660784502 1.163774284 -2.717096410
H 5.079862274 2.174648145 1.009686583
H 6.194070214 -1.080774036 0.289443625
H 1.713082917 0.716678463 1.949317240

