13

C 1.161065249 -2.100617160 0.506010471
C 2.059116771 -0.530197605 -1.695171242
C 0.536460460 1.394668676 -2.145086139
C -0.765543076 1.907279469 2.500695840
N -1.489938973 1.486345658 -0.357874708
C -1.162417631 -0.656361976 1.422192404
H 2.585168752 -2.173290755 1.997235289
H 0.734715955 -4.038989276 -0.073895340
H 3.784813270 -0.892337709 -2.725565331
H 0.697011913 2.882953439 -3.531592879
H -2.554518320 2.531914947 3.348456403
H -3.245474606 1.851068375 -1.009248809
H -2.877873326 -1.758715721 1.702427980

