13

C 1.105471736 -2.316904422 0.278108556
C 2.073913837 -0.531979334 -1.781577911
C 0.584759498 1.649207358 -1.450965280
C -0.649378758 1.948580813 1.430399126
N -2.029383556 0.852815032 -0.711783524
C -1.102240815 -0.812633294 1.350417602
H 2.470188687 -2.666185601 1.802116135
H 0.448771971 -4.160064785 -0.395962630
H 4.093115208 -0.250837408 -1.975648192
H 0.693369844 3.394792487 -2.510996076
H -1.600906450 3.263710085 2.681232772
H -3.799989282 1.217951485 -1.305851000
H -2.569469002 -1.629629550 2.524524927

