10

C 2.627506044 0.887699319 -1.342419733
O 1.139344699 -1.005223201 -0.193448920
C 0.476927624 -0.552175933 2.232036841
C -0.923280179 -2.135959631 3.569422626
H -1.394100492 -1.680637850 5.502297982
H -1.611275207 -3.887700732 2.769634406
H 1.177176978 1.213877822 3.021658259
H 1.623476318 2.695411387 -1.405151780
H 4.423752085 1.136256641 -0.346385816
H 3.008558716 0.265213575 -3.264598218

