15

O 4.030139802 1.956174848 -0.894290684
C 2.084803989 0.297374748 -0.904515028
C 1.520822143 -1.921928267 0.604165114
C -1.376539531 -1.710523132 -0.362369384
C -2.770135107 -0.097720251 1.395653658
C -1.531688314 2.161679824 0.184098914
C -0.391511266 0.616747931 -1.998478710
H 5.240248489 1.447793904 0.357233732
H 1.917720357 -1.909539487 2.645446272
H 2.140871501 -3.709157366 -0.212558322
H -2.101818988 -3.466098468 -1.149180799
H -3.735881949 1.921305432 -0.190299389
H -3.149951898 -0.408261818 3.382160178
H -0.849447275 3.902345448 1.019239111
H -0.818044317 1.109204455 -3.953214607

