17

C -4.742378485 -1.913082176 0.876530320
C -2.469833740 -0.957105823 -0.501844117
C -0.667063212 0.460235995 0.506957357
C 1.603896488 1.456980543 -0.888901563
C 4.076203615 0.956304655 0.490986563
H 5.675523148 1.735502779 -0.547710529
H 4.362667481 -1.069728738 0.736991904
H 4.062350996 1.844121326 2.351866396
C 1.186690124 4.251332320 -1.383224608
O 2.544068853 5.917488953 -0.665522802
H -0.549487854 4.678747212 -2.482749357
H 1.629316838 0.570812053 -2.764339280
H -0.800390571 1.002320828 2.488215994
H -2.309748388 -1.491815565 -2.482378233
H -4.829902984 -3.975623906 0.816149923
H -4.728876581 -1.322412257 2.851150463
H -6.479364491 -1.212254660 0.006016000

