9

C 0.434389568 1.397122296 0.610319215
C 2.771304451 0.399124916 -0.384235707
N 2.732467272 0.247980785 1.963474727
N -2.292059871 -3.794681873 -1.986216410
N -2.176452947 -2.030775774 -0.797743915
C -1.975332570 0.001303684 0.542547419
H 0.226836318 3.423470007 0.851740647
H 3.985503375 -0.113019550 -1.949234791
H -3.610627273 0.513111174 1.646654811

