13

O 2.942369773 -3.359445765 1.322927926
C 1.185532648 -1.537596070 1.137848678
C 0.239017039 2.840373563 0.317613677
O 1.452027079 1.827533254 -1.761977861
C 0.378066659 -0.607248240 -1.531563441
C -2.311699530 -0.250096768 -0.925518408
C -2.230372181 1.930214697 0.506917559
H 4.215930834 -3.113865934 0.048059987
H -0.246850275 -1.774705336 2.579951275
H 0.975438850 4.607738579 1.027576129
H 0.924613022 -1.844215208 -3.082495460
H -3.853368168 -1.515215326 -1.333205900
H -3.694973592 2.734747737 1.677937318

