13

C -2.768445692 2.040656471 0.332073654
C -0.997502442 -0.185751518 0.628469694
O -2.038513881 -2.244143787 -0.648636757
C 1.709545557 0.344151479 -0.346101204
O 2.942046252 -3.862852893 0.415696624
C 2.424652996 2.540909477 -1.155010528
C 3.549440795 -1.777056609 -0.268321532
H -4.596273403 1.551678064 1.144241055
H -3.041151748 2.477159339 -1.662675077
H -2.032757643 3.709475218 1.294205298
H -0.737556497 -0.625731973 2.639902364
H -0.999177041 -3.698070230 -0.293126625
H 5.497577106 -1.364173844 -0.857491556

