13

C -2.748507003 1.933372902 0.140381650
C -1.089761120 -0.303542701 0.848922706
O -2.370783707 -2.570705317 0.357874784
C 1.361886860 -0.174871873 -0.594424370
O 2.116249976 -2.139150414 -1.915543090
C 3.359262801 1.672723620 -0.230318289
C 4.405222564 -0.598281433 -0.400742182
H -4.511228244 1.819202283 1.197043707
H -3.189995894 1.885569993 -1.872546020
H -1.798242518 3.704499891 0.586685790
H -0.588365927 -0.162757481 2.859042148
H -1.176228052 -3.786028572 -0.280142430
H 5.718873352 -1.957125437 0.369618355

