10

C 4.299063684 0.785968370 -0.528494074
C 3.090559450 -1.117389728 1.273169453
C 1.157690973 0.111887245 2.953988395
O -0.989261705 -0.577075304 3.190094292
H 1.852346019 1.788840601 4.016815664
H 2.189807698 -2.672358523 0.264078530
H 4.544856733 -1.918661857 2.511631931
H 2.908605999 1.545319853 -1.848471797
H 5.798903556 -0.101520925 -1.626508327
H 5.130859765 2.371048647 0.499671725

