15

C -4.495210037 -0.428190095 0.041085310
O -3.795305558 1.132082179 1.774467382
C -1.181680517 1.363040122 -0.634486979
O -1.301450281 3.120177354 -1.995201642
C 0.861841422 0.366961683 1.061849185
C 3.181029106 -0.257542988 -0.517121759
O 5.008623001 -1.216698937 1.169748087
H -2.347717994 -0.731964741 -1.443159313
H -4.814580045 -2.429951146 0.527403192
H -5.657058181 0.249393884 -1.546693193
H 1.301246096 1.845869323 2.426607370
H 0.212690074 -1.288933094 2.087450796
H 2.689490913 -1.661626582 -1.965742833
H 3.850371913 1.447841960 -1.481227978
H 6.565406159 -1.459952213 0.278648715

