9

N 0.946136738 -1.660533167 -1.245962045
C 2.646953990 0.152811040 -0.927426144
C 0.451107578 1.864411883 0.084728138
C -1.279288934 -0.276855668 -0.344265694
N -0.847328439 0.595877456 2.178943303
H 0.197806988 3.870827046 -0.168278222
H -3.150881001 -0.461365578 -1.143158828
H 1.218840469 -3.499424242 -1.664467728
H 0.297355473 -0.557984894 3.197716559

