16

N 4.845878861 1.172760858 0.483289822
C 2.647063424 0.607632686 -0.181796207
C 1.628318193 -2.026887454 -0.166763946
C -1.109061800 -2.090559509 0.724692772
C -2.616763121 -0.205396676 -0.833540562
C -1.481864494 2.388108754 -1.097640220
O 1.053997618 2.507311563 -1.092505588
H 5.155941155 3.060904337 0.269384919
H 1.738602005 -2.747551520 -2.104634415
H 2.881356847 -3.173817174 0.991587051
H -1.215016986 -1.567869048 2.723397191
H -1.874154214 -3.998588443 0.547235357
H -2.752955154 -0.873228779 -2.794017882
H -4.552681824 0.009644425 -0.161230356
H -2.158214520 3.259062379 2.179559637
H -2.382266420 3.949174959 0.714640771

