12

C 0.317821812 -1.059812948 -2.223415400
O 0.006032497 1.146077321 -3.243007304
H 0.320967469 2.567516783 -2.082317657
C 0.974372326 -0.852010859 0.567621326
C 3.754997058 -0.126828100 0.909083082
C 4.293526503 2.643638541 0.673492192
O 2.787610822 4.209791170 -0.016152056
H 6.232567488 3.230594184 1.188345978
H 4.957293579 -1.098190413 -0.477192054
H 4.472724526 -0.732673501 2.751891578
H -0.232404453 0.537446897 1.527094333
H 0.655706600 -2.688836841 1.439038255

