17

C 2.885459745 -1.008568848 -1.326447087
C 1.265444800 -0.173997610 0.943532185
C 0.296717785 2.543507699 0.581204828
C -1.840530639 2.262493953 -1.309321142
C -2.971050940 -0.277646235 -0.531994414
C -1.145001329 -1.656591973 0.799395290
O -1.264831546 -4.180466249 1.067769697
H 1.831505987 -0.741990059 -3.081882206
H 4.594999198 0.140622231 -1.431163804
H 3.441390771 -2.989876448 -1.175179727
H 2.321183121 -0.423651105 2.702541494
H 1.791253347 3.824301762 -0.037300416
H -0.372243940 3.238016613 2.437713933
H -3.155830250 3.835169558 -1.478266796
H -4.477717239 -1.248278434 -1.524978785
H -3.792161545 1.022748068 0.941641552
H 0.162089576 -4.759758372 2.026822656

