19

C 4.411258047 -0.147170869 1.478318801
C 1.947875341 1.262831007 0.986880726
C -0.324806863 -0.457929149 0.960535789
O -0.766092836 -1.750632833 3.256181926
C -2.512812821 0.016039523 -0.514749359
C -2.654484247 1.952750116 -2.554377460
O -1.926285579 -2.932326105 -2.611098421
H 4.308921157 -1.207260454 3.242844750
H 4.788230082 -1.494934615 -0.038005416
H 6.007153340 1.154177802 1.599752640
H 1.690948914 2.726953902 2.440456379
H 2.072295495 2.266777358 -0.811683707
H -0.351434730 -2.295358917 -0.880349362
H -1.056039014 -0.530133619 4.569133270
H -4.296487780 -0.625064559 0.268782266
H -0.940937175 1.967913052 -3.692415867
H -4.254527394 1.610171701 -3.797162082
H -2.864086489 3.817010121 -1.681029741
H -2.912889441 -4.380983293 -2.115147397

