15

C 3.821209338 -0.615333698 1.317290703
C 1.817154651 1.245697200 0.597225454
O 1.179520371 1.402464420 -2.029463038
C -0.631176519 0.446460307 -0.384945772
C -3.287740749 1.429662076 0.058944923
O -4.037845689 -1.171238363 0.472812216
C -1.799352732 -2.183372330 -0.293742185
H 3.811365982 -0.913191838 3.358316823
H 3.488740467 -2.425650734 0.392785792
H 5.682748421 0.085175909 0.772793143
H 1.898383584 3.085425820 1.513913437
H -3.679310238 2.633126751 1.685968276
H -4.178576769 2.162009392 -1.658263001
H -2.146587734 -2.173668586 -3.523080608
H -1.860554706 -3.404406922 -2.409662252

