9

N -1.208015645 2.199190887 0.566766527
C -1.270982340 -0.087095153 1.505647548
N 0.767322216 -1.472706012 1.109145099
C 2.207987430 -0.311391962 -1.418468302
O 3.900651875 -1.501422385 -2.208808044
H -2.838592156 3.176088379 0.508521936
H -2.927182592 -0.856363730 2.463620906
H 0.731134943 -3.326583333 1.556317663
H 0.470225729 1.846784423 -1.017741749

