11

C -3.494886064 -0.853647777 -0.303196976
C -0.808270767 -0.184070134 -0.666621167
O 0.615143799 -0.069831616 1.261144426
C 3.081252662 0.501609432 1.363660632
C 4.328305873 1.052023233 -0.880278006
N 5.195534564 1.480593294 -2.844988104
H -4.724175207 0.674227012 -0.957160701
H -3.983134641 -2.532816687 -1.404607369
H -3.887621080 -1.219594545 1.683282446
H 0.016856452 0.222833878 -2.502765336
H 3.878309133 0.473274481 3.226015888

