11

C -3.082684905 -0.615678573 -0.682239546
C -0.981747020 0.918820917 0.281450045
O 0.480331380 -0.021447768 2.036727750
C 2.878462505 0.570049435 1.176423658
C 3.631305469 -0.440720944 -1.144364284
N 4.260799603 -1.290255544 -3.062105390
H -4.646485561 0.559936074 -1.322239914
H -2.417320254 -1.730201322 -2.301878926
H -3.700425018 -1.950332892 0.763770570
H -0.514401668 2.784130117 -0.414939259
H 4.186234128 1.230638823 2.588393003

