14

C 3.271484324 -1.826461665 -1.480006610
C 2.197362086 -0.797089938 0.853454591
C -0.540964584 -1.357916772 1.077212715
C -1.817799539 0.865081282 -0.246927905
O -4.180138892 1.627446859 0.727431930
C -2.104959448 3.306356007 1.002194084
H 1.972701637 -2.333441529 -3.022464662
H 3.999098688 -3.626169874 -0.695759931
H 4.936091136 -0.826332504 -2.166297010
H -1.159941655 -3.104723288 0.134688869
H -1.186654333 -1.352432541 3.035130344
H -1.725018635 0.831303788 -2.299885397
H -1.399749885 3.524026718 2.916536820
H -2.206242079 5.021194120 -0.118878230

