12

O -2.568294934 2.152454993 2.186741088
C -2.485329211 0.918386393 0.028006006
C 1.185666743 -2.544716462 1.144883599
O 2.493132457 -2.028405207 -1.077551543
C 2.228689644 0.163201265 -2.079607695
O 0.930675603 1.857170962 -1.065629317
H -2.080997305 3.887634119 1.934967434
H -3.013374305 1.890451931 -1.690187789
H -2.864873390 -1.073932679 0.211805228
H 1.734865525 -4.417877777 1.766536523
H 1.368755409 -1.037928446 2.530148242
H 3.116000663 0.365783174 -3.924884646

