10

O 4.771934180 2.055971473 0.282857022
C 3.776149348 0.101091182 -0.237697027
C 0.944019507 -0.259270330 -0.145280519
N -0.120451351 -2.422312627 -0.721107282
C -2.700148552 -2.132217916 -0.453544474
C -3.009854369 0.522634713 0.367260543
O -0.470559625 1.623817962 0.520278565
H 4.798657421 -1.613424374 -0.830061822
H -4.106960854 1.639106224 -0.978197359
H -3.878089736 0.664792857 2.234762752

