14

O 0.467588087 0.974642047 -2.907210870
C 2.617721420 0.093469615 -1.141502199
C 1.763622622 0.726804541 1.355097735
C -2.142368599 0.609886241 -0.344786994
C -0.817594732 -0.214194069 1.959981266
O -0.957275218 -2.850277674 2.427056066
H 0.308758100 -0.144205416 -4.358588583
H 4.353479784 1.041699356 -1.706974528
H 2.726784601 -1.936272347 -1.548906440
H 2.370002173 2.479869754 2.212015910
H -3.069630639 -0.731379304 -1.594099222
H -2.881510406 2.513422711 -0.376753129
H -1.528083283 0.899273854 3.557494222
H -2.699217484 -3.297452505 2.680587336

