13

C 2.408117439 -0.426863941 0.021760858
C 1.260651000 -0.904022282 2.575800095
C -0.781727390 2.740048438 -1.646620096
C 0.103586263 0.166239887 -1.610229489
C -2.209809258 -0.183720289 0.321619387
N -1.119640373 -0.822118585 2.740797525
H 3.447681953 -2.090906387 -0.626307111
H 3.724634507 1.160169594 0.081653875
H 2.389150182 -1.333416189 4.239187693
H -2.274732273 2.869089236 -3.100885046
H -0.135623792 -1.059850421 -3.249966258
H -3.497210730 -1.623539227 -0.390681166
H -3.333273719 1.567923302 0.554939223

