9

O 3.285080695 0.736222275 -0.706404985
C 1.056443737 -0.243502323 -0.154274595
C -1.281517110 1.277663996 0.046680166
N -3.107777633 -0.677778299 0.669890242
N -2.016576561 -2.745261512 0.777335893
N 0.621158514 -2.578322633 0.271815050
H 4.510510734 -0.615130477 -0.730761552
H -1.214187075 2.699765373 1.539803875
H -1.811610459 2.217181855 -1.711910928

