9

O 3.541692143 0.634881516 -0.505500208
C 1.172586550 -0.095832717 -0.077301080
C -0.899734513 1.420956883 0.459407104
N -2.948301964 -0.338139524 0.806120088
N -2.011522110 -2.592038776 0.331440274
N 0.435172028 -2.489909510 -0.110118914
H 4.536161234 -0.857617979 -0.821115972
H -1.066093094 3.368571139 1.029243510
H -2.746970315 0.976826665 -1.112010415

