13

C -3.636260085 -2.556698195 -0.449088255
C -1.083639654 -1.350597371 -0.565140682
C 0.416827020 -1.193965494 1.439870585
N 2.833425380 -0.103611208 1.564765778
C 4.139918301 1.051344575 -0.322503457
O 3.433522821 1.326212497 -2.473000392
H 5.993864370 1.743301546 0.345188297
H 3.702296187 -0.165015874 3.250806015
H -0.183682778 -1.956051581 3.246659143
H -0.456024778 -0.580913017 -2.351939151
H -3.769082887 -4.138378382 -1.770762801
H -5.111634787 -1.210334604 -0.975395896
H -4.064294882 -3.265012427 1.440743487

