16

C -3.709278347 -1.745391432 -0.628965710
C -1.155004784 -0.502504935 -0.742562665
O -1.638911469 2.394747589 -1.019268912
C 0.256783942 -0.433853963 1.675272710
N 2.981285697 -0.250122789 1.385039104
C 4.172737231 1.438468143 -0.027383152
O 3.146971082 3.008019142 -1.432636089
H -3.472288644 -3.793744437 -0.642860526
H -4.873839872 -1.208991916 -2.240120125
H -4.694450892 -1.213397170 1.103236662
H -0.111553462 -0.990815703 -2.455198246
H 0.113160636 2.984172272 -1.537777654
H -1.196415486 2.311338517 1.007905176
H -0.205862021 -1.920605081 3.008582280
H 4.084432068 -1.399077086 2.421139863
H 6.241608108 1.354912221 0.107733702

