11

C -3.637855165 0.474405369 0.469788787
O -1.226972641 1.121297550 -0.536880433
C 0.495608455 -0.688767794 -0.550781334
C 3.051801923 -0.176997305 -0.759714896
C 5.049592546 0.850979994 -1.731326956
H -4.344111278 -1.272473656 -0.374419676
H -4.901882614 2.023066749 0.000748521
H -3.519220238 0.268028492 2.520230298
H 2.808812642 -1.021031157 1.338102200
H -0.170069871 -2.606967971 -0.217057609
H 6.651966066 1.257528530 -0.506954125

