12

O 2.586138201 -2.391318643 0.615315292
C 1.688050074 -1.002417903 -1.497379769
C 1.190113986 1.280654148 0.279548490
C -1.639369727 1.772858412 0.312512097
N 0.822869487 -0.902019872 2.089017209
C -1.672051823 -1.101762317 0.561196635
O -0.783593173 -1.941517263 -1.817697210
H 2.803901131 -1.099414427 -3.217563842
H 2.674256394 2.640999860 0.672250756
H -2.560484809 2.567673252 -1.342587484
H -2.196569705 2.734827483 2.044284594
H -3.199991959 -2.254929096 1.291805781

