12

O 3.069046543 -2.525410359 0.188127262
C 1.909600355 -1.028615894 -1.397057290
C 1.241871374 1.204802903 0.293619938
C -1.532547497 1.936582810 0.386263289
N 0.221004358 -0.550985160 2.179420384
C -1.710535339 -1.348172739 0.573530065
O -0.871200952 -1.981770073 -1.714891101
H 2.628174988 -0.867400316 -3.326982254
H 2.737774303 2.449554428 0.922773241
H -2.576195539 2.205584776 -1.359151462
H -2.085809720 3.179945197 1.915659857
H -3.317918580 -2.370478139 1.329390600

