13

O 2.125138133 1.711491711 2.801827100
C 1.468648827 1.345256608 0.447544311
N 2.956529982 0.200933747 -1.430387277
C 0.944836568 -1.667393742 -0.471106304
C -1.446274564 -0.526116175 -1.496709635
C -2.953958046 0.742911319 0.496133327
N -0.863881986 2.104175836 -0.662949051
H 4.632042082 -0.264404829 -0.613452532
H 1.340923693 -0.516839207 2.330602707
H 1.508595180 -3.635547091 -0.476991025
H -2.155735936 -0.818113311 -3.395507314
H -4.782608336 1.501383570 -0.016329539
H -2.768554276 0.135844588 2.445169243

