15

C -2.900330340 -0.096476585 -0.081427240
C -1.786958642 -2.208057350 1.396059854
O 0.340682925 -3.265682846 0.735639502
C 2.254235000 -2.198977537 -0.393864675
C 2.855457206 0.513310446 -0.002234733
C 0.989463207 2.567079765 -0.613176670
C -1.493076088 2.329011765 -0.535066598
H -3.299704001 -0.876589147 -1.985463789
H -4.742390296 0.320230816 0.747585292
H -3.047377318 -3.563549660 2.262395045
H 3.788332960 -3.522108816 -0.660437511
H 3.260061326 0.716733510 2.044681985
H 4.638143630 0.888899655 -0.968254414
H 1.801045681 4.404933247 -1.022368346
H -2.664263560 3.960122747 -0.949828450

