17

C 3.645887975 -0.409616940 -0.967037562
N 1.447062712 0.589674316 0.304686156
C 1.298880292 1.598225476 2.685596414
C -0.991018980 -0.028269868 -0.055952750
C -2.999777555 1.940626068 -0.415915265
C -1.671393744 -2.707624744 -0.706153973
H 4.103346677 -2.326181636 -0.332652250
H 3.353176920 -0.424725490 -3.009622650
H 5.243703797 0.813700366 -0.518144441
H 2.129264596 3.431566406 3.096472384
H 0.610976689 0.434349562 4.216561511
H -4.527583276 1.779278946 0.964490608
H -3.867984765 1.725694363 -2.292166225
H -2.195345276 3.827347811 -0.254558317
H -3.669111443 -3.075006853 -0.357865619
H -1.319262254 -3.099353669 -2.711746746
H -0.561473045 -4.059122456 0.391387527

