14

C 4.736306002 0.108955372 1.289910310
N 2.487832210 1.622844658 0.889876832
C 0.527465364 0.607995608 0.123123065
O 0.067530119 -1.918613291 -0.568624222
C -2.411146046 -1.297940928 -1.379085578
C -4.033657811 0.326285385 1.237896071
C -2.121921290 1.413011170 -0.510147687
H 6.341494098 1.059303629 0.415196527
H 5.108547863 0.001500443 3.315726554
H 4.595447215 -1.810544672 0.539713057
H -2.992841410 -1.804712940 -3.275585710
H -3.797940196 -2.182672980 0.165137610
H -5.876465872 0.738113910 0.346460214
H -2.517801471 3.005794386 -1.731565043

