12

C -0.305331327 2.678363808 0.307909178
C -0.431254777 0.083286825 1.393243936
C -2.472359718 -1.274368559 1.842821762
H -2.339629928 -3.137727052 2.671429553
H -4.320930159 -0.534674707 1.387666069
O 1.910142593 -0.905550504 2.158084487
C 3.559554174 -1.598013298 0.365934504
O 3.218678724 -1.523966572 -1.860884255
H 5.296785844 -2.268608597 1.281388684
H -2.201153916 3.394424387 -0.044561216
H 0.654425139 3.949868261 1.620209832
H 0.745054760 2.671537853 -1.465192102

