12

C -1.014095673 -2.273625555 -2.786302792
N 0.267759660 -1.669457342 -0.797387475
C 1.399564106 -2.099345601 1.386253990
H 2.487082782 -3.741958118 1.912186105
C 1.957346024 0.317787759 0.098860739
C 4.280028511 0.830694692 -1.472480549
H 5.742694332 1.647920285 -0.268320720
H 3.902374814 2.169687784 -2.996911294
H 5.014082854 -0.915888855 -2.287097999
H 1.005168550 2.001729984 0.807307233
H -1.720620203 -4.179544535 -2.977896227
H -1.417271633 -0.827603969 -4.166213651

