17

O 5.253675900 -0.391434449 -1.257704841
C 3.225222543 -1.336470062 0.176954748
C 0.701234997 -0.826706651 -1.082125833
C -1.574294741 -1.715428275 0.481901100
C -3.347006340 0.567897320 0.457342522
C -1.481407029 2.740799849 0.247098604
O 0.417746070 1.844743859 -1.415496614
H 4.838937613 1.328172709 -1.675167433
H 3.204917795 -0.502127330 2.081728497
H 3.516249267 -3.371178092 0.381211673
H 0.718510798 -1.658613300 -2.974717103
H -0.985974092 -2.145593152 2.416326183
H -2.435085305 -3.413716545 -0.299598087
H -4.539400054 0.684782758 2.133011488
H -4.564186760 0.528764097 -1.208029346
H -0.673612058 3.206482318 2.102567509
H -2.275528642 4.459624926 -0.565303029

