17

O 4.654000379 -1.685943162 -2.359604919
C 3.027357843 -1.442033414 0.841428657
C 0.841766427 -0.298312468 -0.136649025
C -1.779041294 -1.475240456 -0.195718368
C -3.386425347 0.580540212 1.053909538
C -1.992948389 2.965711368 0.249214833
O 0.604990206 2.329052319 0.325533387
H 5.950100448 -0.431977503 -2.632317003
H 4.427207978 -0.322227312 1.829894977
H 3.082257789 -3.460352340 1.152557947
H 2.418426670 -0.753852928 -2.190387050
H -1.857837280 -3.279580402 0.794997198
H -2.418227285 -1.796665749 -2.132066455
H -3.327131070 0.393289329 3.108679354
H -5.356303695 0.559724122 0.451769719
H -2.294409519 4.570637662 1.506480010
H -2.537454887 3.522463953 -1.675529240

