11

C -4.327387032 -0.405197400 -1.485129336
C -1.751793125 -0.004441480 -0.598863317
C 0.367905299 0.320363796 0.117792941
C 2.954761482 0.720748838 1.003263026
C 4.850502964 -0.438013118 -0.653363453
N 6.361133436 -1.331850778 -1.921760044
H -5.298762460 1.394719963 -1.739616372
H -5.398634183 -1.533708866 -0.133494864
H -4.320363846 -1.398002852 -3.291278562
H 3.366837712 2.740383958 1.132882818
H 3.195799715 -0.065002043 2.897921355

