11

C -3.075022670 -0.554211583 -0.966413348
C -0.984769032 1.254464112 -0.992197338
C 0.607064426 2.977655363 -1.360822226
C 1.917555252 0.651486861 0.676505493
C 3.697289357 -0.893805913 -0.737890941
N 5.059128785 -2.166743704 -1.842828527
H -4.512880337 0.142698719 -2.267048401
H -3.920203624 -0.734272739 0.905215701
H -2.460122721 -2.407686657 -1.629101938
H 2.897502951 2.003520386 1.868615918
H 0.863150001 -0.568924462 1.973721427

