18

C -2.502655807 -1.673410687 0.922351889
C -0.340614385 0.051413457 0.089360632
C -1.414179021 2.305674895 -1.365158599
C 1.115793363 0.966646483 2.418716441
C 3.705037971 0.003311443 -2.102015784
C 1.451479134 -1.564172706 -1.666162586
H -3.532396844 -2.416333779 -0.704881526
H -1.811340606 -3.271210786 2.030523458
H -3.835529305 -0.614624351 2.092519646
H -2.513668526 1.673844417 -2.994042822
H 0.080135783 3.546333159 -2.047566803
H -2.669983194 3.398572544 -0.142477583
H -0.156039675 1.930165432 3.728872690
H 1.986609813 -0.612030551 3.425606701
H 5.214259218 -0.686828897 -0.826477087
H 2.604302550 2.304869947 1.900742548
H 1.754088991 -3.396029653 -0.743649900
H 0.406338039 -1.837680403 -3.430024843

