18

C -2.603541331 -1.771755077 0.970914543
C -0.520027232 -0.035782739 0.021111434
C -1.646755703 2.250555231 -1.332219142
C 1.244133849 0.858873343 2.138200317
C 3.768493576 0.256357298 -1.094247273
C 1.454666894 -1.353590735 -1.668697408
H -3.774476279 -2.441299329 -0.592720366
H -1.825002778 -3.421323562 1.936325618
H -3.834690739 -0.774483919 2.298585682
H -2.812800569 1.645242070 -2.924379221
H -0.162159270 3.486333958 -2.054384973
H -2.841274887 3.345121584 -0.049595635
H 0.581246440 2.476887615 3.237931858
H 1.862719500 -0.648583372 3.392133813
H 5.170998247 -0.878165689 -0.055045379
H 2.960677289 1.772161141 1.041994891
H 1.627519916 -3.344855397 -1.124930699
H 0.966910006 -1.273320555 -3.675360881

