9

C -3.512409589 -0.233404911 -0.350419909
C -2.049183672 -0.909793563 1.970733959
H -0.808334337 0.641752995 2.536345977
H -0.838890812 -2.548280297 1.627784554
H -3.301955591 -1.347397687 3.548220787
C -6.008266200 -0.171352258 -0.511823817
H -6.956162197 0.338401950 -2.252998439
H -7.198245694 -0.627444764 1.095325116
H -2.402293851 0.240028212 -2.014449239

