16

C 4.319119423 -0.261891512 0.586136598
C 2.023288169 1.454617327 0.617676807
O 0.546468733 1.422258016 -1.384627011
C -1.858241454 -0.672992379 -0.626265008
C -1.890116240 -0.546836134 2.121345094
C -4.341974395 -0.103334061 -1.188333562
H 5.294135825 -0.255282724 2.404547387
H 5.638445512 0.367966129 -0.870843454
H 3.767178535 -2.198537061 0.133967409
H 0.650903332 0.516737294 2.361072103
H 2.381673084 3.345890570 1.393366201
H -1.123850022 -2.403054579 -1.444022464
H -1.918092973 -2.290649021 3.201364127
H -2.888831073 1.021265105 2.984195157
H -5.413524923 -1.141354555 -2.591926035
H -5.234833838 1.535946339 -0.354651932

