17

C 3.364775983 -0.916623392 -0.778690071
C 2.170119322 1.081532837 0.803560587
C 0.355909110 2.794928673 -0.659779168
C -2.121673263 1.489460910 -0.096715843
O -2.655024954 -0.573331700 -1.798591153
C -2.236638796 -2.425211561 0.143663103
C -1.437443553 -0.399812777 1.987849568
H 4.204505190 -2.437411898 0.330280020
H 4.930512267 0.083042352 -1.702165610
H 2.198742569 -1.698760475 -2.311498974
H 0.834405414 0.057978536 2.597617625
H 0.394596887 4.737432278 0.041991415
H 0.703333292 2.820160183 -2.696420293
H -3.771298912 2.714112192 0.131294770
H -0.817074566 -3.824473538 -0.412382006
H -3.980980013 -3.411285658 0.664557605
H -2.237590443 -0.323445712 3.881132969

