16

C 3.851977765 1.460779667 0.270789855
C 1.930348773 -0.287518712 -1.032363845
C 0.037570250 -0.943397504 0.948178984
C -3.541077415 -2.062593263 -0.682223842
O -4.252052155 -0.313440614 1.136822311
C -1.977765290 1.096372535 1.332996840
H 4.716270521 0.526426317 1.891187147
H 2.966832656 3.203289456 0.934082288
H 5.337427164 1.979743417 -1.058843046
H 2.913467924 -1.966975445 -1.718055807
H 1.132014640 0.723860348 -2.668619020
H -1.523096466 -2.850960848 0.119779742
H -4.710930079 -3.759048555 -0.636252002
H -3.370630713 -1.280533413 -2.593695726
H -1.854398923 2.008566635 3.180083506
H -1.970008474 2.577152458 -0.149125337

