11

C -2.895083213 -0.719275457 -0.397944593
C -0.258856348 0.207721379 -0.554391315
C 3.253989598 -0.906507801 0.917337954
O 1.577167464 -1.565507987 -0.815925915
C 0.412980747 2.776401023 -0.634302523
N 0.772550956 4.927832390 -0.802414373
H -4.222206671 0.783950483 -0.858664509
H -3.142717252 -2.283762897 -1.726498895
H -3.361806354 -1.433172885 1.488871958
H 5.227462810 -0.998469301 0.392085214
H 2.605528661 -0.462167276 2.796698761

