15

C -2.248921373 2.479133366 0.682407372
C -1.487444893 -0.260800365 1.010610924
C -2.707867328 -2.230818251 -0.746691698
O -0.265119656 -2.906947934 -1.770613191
C 0.918832860 -1.115785275 -0.276811165
C 3.294831455 -0.505003304 -0.205367234
C 5.659967867 0.155039443 -0.059475256
H -4.170926023 2.793677164 1.366822427
H -0.984921288 3.716620084 1.741313460
H -2.166851324 3.031243649 -1.303660618
H -1.551586582 -0.811924798 2.996528889
H -3.940554557 -1.458409081 -2.212036565
H -3.610537757 -3.847319873 0.160152853
H 6.953946266 -0.775075970 1.233734875
H 6.432146358 1.646626143 -1.238467580

