15

C -2.225436367 2.458511767 0.731680507
C -1.268109881 -0.223957282 1.050684721
C -2.248722744 -2.236381604 -0.803735594
O 0.278533877 -2.506639785 -1.858744745
C 1.237189351 -0.786787548 -0.231707711
C 3.707066328 -0.097782480 0.049079665
C 6.124157094 0.152235637 -0.401027115
H -4.179380110 2.614307101 1.373007048
H -1.075809914 3.764679995 1.835291260
H -2.138461118 3.044710858 -1.244416079
H -1.358542630 -0.815513690 3.020644837
H -3.563023201 -1.576116021 -2.245124838
H -2.893119239 -4.012065460 0.015122174
H 3.089087335 -1.222738710 1.954217375
H 6.557947977 1.412591122 -1.982141215

