14

C -3.020291742 -0.159913765 0.017015189
C -0.706986643 0.155973761 -1.621489876
O 0.211707907 2.356635007 -1.961175838
C 2.207865259 -1.784531005 0.049340636
C 2.433990568 -0.053362464 1.983516312
O 2.939725517 2.280805815 1.577667656
H -4.641032473 0.533252102 -1.062286297
H -3.361678646 -2.132960654 0.501550907
H -2.878836028 0.975789130 1.728529481
H -0.614193380 -1.161333628 -3.218345206
H 1.873345317 2.719766650 -0.201340114
H 3.328330517 -1.518538882 -1.639203243
H 1.700866083 -3.710650893 0.518832736
H 1.894546325 -0.553706630 3.915275747

