10

O 0.932793419 -0.224608274 3.135540847
C 0.825861112 0.905550239 -3.213945980
N -0.485147404 -1.543087029 -2.951460149
C -1.220698429 -1.781510164 -0.682945037
C -0.475882001 0.393083840 0.999865979
N 0.856616292 1.854404025 -0.908783806
H 2.343714779 -1.255023736 2.635163139
H -2.256655286 -3.414346390 0.008579942
H -2.129292148 1.434621417 1.672041089
H 1.592625103 3.568634440 -0.538043994

