10

O 2.151558413 -0.136520958 1.605060181
C 2.027651962 0.231432075 -1.667380816
N 0.334584231 -2.020119211 -2.121051298
C -1.515442679 -1.712323360 -0.644044930
C -1.201065592 0.804178281 0.605186284
N 0.025585871 2.212650499 -1.070692007
H 2.719210371 -1.821223987 2.021822762
H -3.058315923 -3.026927817 -0.328186752
H -2.238806142 1.529979624 2.220031222
H 0.738974907 3.876595151 -0.464732655

