15

C -3.799952792 0.575685902 -0.157241163
C -1.505785366 -0.768815156 -1.139616385
C 0.819690930 0.841453734 -1.135509519
C 0.599402059 3.577789294 -0.887764496
N 0.414334982 5.736007253 -0.817923601
N 1.042320755 -0.491570999 1.275867698
C 3.128176301 -2.328878690 1.163659446
H -3.445472183 2.019952141 1.278766500
H -4.580621142 1.549626086 -1.811892368
H -5.224769799 -0.750692739 0.508233640
H -0.593733070 -2.003670563 0.841981062
H 2.261279464 0.372196187 -2.527683756
H 3.055080938 -3.505577851 -0.538423451
H 3.050993158 -3.526883587 2.835110884
H 4.895064180 -1.268498106 1.175954854

