11

O 4.380492739 -1.795555346 -0.256650073
C 2.211957593 -1.149270466 -0.139009406
C 1.099672941 1.309971132 0.008744859
C -1.132447558 2.245891009 0.137501726
N -2.928763235 0.397951018 0.136477362
C -2.167818920 -2.072104424 0.006220771
N 0.122962306 -2.839772139 -0.119846431
H 3.483916072 3.235137785 0.728248670
H 3.423994349 3.294944631 -0.746204961
H -4.785075260 0.807872488 0.230103503
H -3.680286244 -3.463976589 0.013367072

