16

C 4.059141882 0.914665825 0.460777855
C 2.186624284 -1.275495913 0.749494747
C 0.032721591 -0.892463943 -1.030999992
C -3.884660124 -1.052523330 -0.333305944
C -1.592741453 1.141927633 -0.847140184
C -1.790361830 3.592094483 -0.531397392
H 5.036156669 0.809564171 -1.350220465
H 3.067060819 2.724109788 0.548386522
H 5.467297420 0.854032960 1.962709275
H 3.094999985 -3.098066973 0.422634300
H 1.452546130 -1.294616049 2.681658074
H -0.313441276 -2.316267187 -2.469738592
H -5.124314132 0.092968799 0.831659359
H -4.742526810 -1.518546705 -2.140810803
H -3.468992791 -2.781240461 0.707707101
H -3.524421633 4.267010698 0.362094316

