11

O 3.890879137 -2.740989502 -0.667520374
C 2.174390273 -1.288439120 -0.511468095
C 2.216583681 1.439991943 0.144334579
C -0.143168448 2.250770093 0.251872676
N -1.831532878 0.233971886 -0.324809792
C -1.886821408 -2.086472900 1.487351446
N -0.414141549 -1.977528488 -0.948204627
H 3.911222568 2.474379684 0.598516590
H -0.925216978 4.072682696 0.731748632
H -3.244389166 0.571689925 -1.569432494
H -3.657684213 -3.030019976 0.933777135

