9

O -1.821529102 2.611392841 -1.347426940
C -2.118397291 1.770201476 0.732251696
C -1.006665497 -0.675110044 1.624761899
H -1.872795312 -1.497332488 3.297343619
C 1.680723284 -1.170935043 1.119085436
H 2.742430702 -2.334378209 2.434543142
H 2.741728423 0.228824763 0.057072715
O -0.233738542 -2.408272019 -0.242663001
H -3.231083585 2.803336594 2.177847357

