16

C -1.666395154 1.753833236 -1.651793751
C -0.079988724 -0.020535181 0.005442468
C -0.952714477 0.162507622 2.765341893
C -0.350567232 -2.751587502 -0.933990863
C 2.592164462 0.731607356 -0.153688742
C 4.768797934 1.341115236 -0.288640472
H -1.479936747 3.709110085 -1.024941152
H -3.658787019 1.222119446 -1.546293006
H -1.068258682 1.651611033 -3.622313188
H 0.171865810 -1.071138152 3.975212588
H -0.769827445 2.091721917 3.469312571
H -2.933241772 -0.401379076 2.917237304
H -2.326612966 -3.340707165 -0.826634842
H 0.274676265 -2.922871957 -2.891172463
H 0.777148073 -4.038211559 0.216245820
H 6.701677655 1.882804681 -0.409324165

