13

C -2.002088635 0.345951028 2.037327435
C -0.994843106 -1.900810559 0.491291395
O -2.819409074 -1.292746600 -1.510288829
C -1.761190695 1.157384327 -0.744226229
C 5.145776772 1.114150643 -0.342343257
O 2.868061622 0.959293446 0.520680000
C 0.835509544 -0.128283661 -0.898692631
H -3.935976242 0.129034260 2.699359063
H -0.747301267 1.216668890 3.412983955
H -0.749269152 -3.873854840 1.007533562
H -2.436767199 2.843531881 -1.703238918
H 5.122298512 0.263683199 -2.291611099
H 1.487011598 -0.721434790 -2.762317310

