13

C -2.125311742 -1.610715224 -0.034624639
C 0.240800695 -0.632380199 0.761502634
C 2.810101303 -0.605860274 -0.767392060
O 3.030066444 2.081347056 -0.694273171
C 0.448097358 2.074837327 -0.125448429
H -3.301385460 1.480064058 1.223384108
H -3.294880588 -2.727315482 1.212005008
H -2.585299200 -1.666519952 -2.027375382
H 0.638325618 -0.837831545 2.768662538
H 2.555689100 -1.278286132 -2.696920541
H 4.373728011 -1.545658719 0.183189314
H -2.337636305 2.699429398 1.565838708
H -0.726320620 2.718374583 -1.709133446

