13

O 2.821034087 2.553042463 -0.914457879
C 1.445107337 1.491216805 1.174010912
C 2.801939973 -0.084887518 -0.614648748
O 1.190728450 -1.413591411 -2.190745474
C -1.302370294 -0.675797564 -1.573048731
C -2.288889478 -1.508017491 0.937620441
C -1.296240854 1.146954702 0.583453659
H 2.114908044 1.991094511 3.045078731
H 4.607107713 -1.007541555 -0.345006070
H -2.513808196 -0.480748896 -3.203702361
H -1.155586290 -2.836693907 2.004641466
H -4.310843160 -1.728523170 1.142666629
H -2.564733764 2.748520307 0.656255736

