16

C 3.658833317 -0.150159565 0.750592508
C 1.797774470 1.612602664 0.344459070
C -1.228331732 -0.203811366 -1.735055235
O -0.415260040 -2.120201450 -2.843179863
C -3.193917548 -0.644796229 0.343274760
C -4.074807221 1.659260342 1.566540627
N -4.734997895 3.499942064 2.501711303
H 5.414803965 -0.070272395 -0.298442859
H 3.739608867 -1.187028744 2.515380940
H 3.107294940 -2.718633967 -0.740770808
H 2.130807576 3.073975251 -1.045746545
H 0.560647197 2.124276475 1.889175232
H -1.386036728 1.575291155 -2.774286590
H 1.855785547 -2.956209674 -1.693647688
H -2.439134289 -1.946961129 1.753518898
H -4.811542537 -1.581502043 -0.536910101

