27

C     4.12890   0.23586   0.34965
N     2.83507   0.61196  -0.17500
C     1.88738  -0.29782  -0.46058
O     2.04449  -1.52329  -0.31920
N     0.71485   0.28669  -0.94829
N    -0.17871  -0.62455  -1.16597
N    -1.32333  -0.36102  -1.60959
C    -2.28519   0.89486   0.34341
C    -2.64249   2.06022  -0.54494
C    -3.31363  -0.22178   0.41676
C    -1.13499   0.91981   1.05817
C    -0.45478  -0.19692   1.69421
O    -0.65323  -1.39046   1.49244
H     4.59770  -0.52651  -0.29127
H     4.77178   1.12376   0.37022
H     4.04980  -0.17179   1.36712
H     2.58911   1.59438  -0.28320
H     0.05995  -1.58331  -0.91180
H    -1.95328  -1.13335  -1.45985
H    -3.18711   2.67402   0.11215
H    -3.26032   1.79084  -1.43372
H    -1.74238   2.59633  -0.93463
H    -2.93560  -1.14457   0.85229
H    -4.00658   0.25948   1.11643
H    -3.87167  -0.43742  -0.50822
H    -0.62785   1.87462   1.15457
H     0.35529   0.10875   2.39885
27

C     4.12862   0.23606   0.34913
N     2.83448   0.61230  -0.17534
C     1.88695  -0.29760  -0.45899
O     2.04305  -1.52267  -0.32019
N     0.71089   0.28835  -0.94272
N    -0.18170  -0.62122  -1.16286
N    -1.33458  -0.34812  -1.58328
C    -2.27188   0.87905   0.31694
C    -2.63837   2.05584  -0.54950
C    -3.31220  -0.22061   0.41547
C    -1.13126   0.91655   1.05550
C    -0.45443  -0.19599   1.69342
O    -0.65089  -1.39188   1.48823
H     4.59751  -0.52645  -0.29149
H     4.77167   1.12382   0.37010
H     4.04957  -0.17178   1.36693
H     2.58877   1.59450  -0.28277
H     0.05753  -1.58288  -0.91164
H    -1.95722  -1.12875  -1.45658
H    -3.18365   2.67000   0.11468
H    -3.26136   1.79249  -1.43405
H    -1.74216   2.59626  -0.93647
H    -2.93617  -1.14434   0.85258
H    -4.00261   0.26317   1.11671
H    -3.87395  -0.43766  -0.50675
H    -0.63281   1.87544   1.15831
H     0.35348   0.10885   2.40073
27

C     4.12833   0.23626   0.34861
N     2.83390   0.61264  -0.17569
C     1.88652  -0.29738  -0.45740
O     2.04162  -1.52204  -0.32119
N     0.70693   0.29001  -0.93716
N    -0.18470  -0.61788  -1.15974
N    -1.34584  -0.33522  -1.55697
C    -2.25857   0.86323   0.29047
C    -2.63426   2.05146  -0.55406
C    -3.31077  -0.21945   0.41418
C    -1.12753   0.91329   1.05283
C    -0.45408  -0.19506   1.69264
O    -0.64856  -1.39330   1.48403
H     4.59731  -0.52639  -0.29170
H     4.77156   1.12388   0.36998
H     4.04934  -0.17177   1.36674
H     2.58844   1.59462  -0.28234
H     0.05512  -1.58246  -0.91148
H    -1.96115  -1.12414  -1.45331
H    -3.18019   2.66599   0.11721
H    -3.26240   1.79414  -1.43438
H    -1.74193   2.59618  -0.93830
H    -2.93674  -1.14411   0.85287
H    -3.99863   0.26687   1.11700
H    -3.87623  -0.43790  -0.50529
H    -0.63778   1.87626   1.16205
H     0.35166   0.10896   2.40262
27

C     4.12804   0.23646   0.34809
N     2.83332   0.61298  -0.17604
C     1.88609  -0.29716  -0.45581
O     2.04018  -1.52142  -0.32218
N     0.70297   0.29167  -0.93159
N    -0.18769  -0.61455  -1.15662
N    -1.35710  -0.32231  -1.53065
C    -2.24526   0.84742   0.26399
C    -2.63014   2.04707  -0.55861
C    -3.30934  -0.21828   0.41288
C    -1.12379   0.91004   1.05015
C    -0.45373  -0.19414   1.69185
O    -0.64622  -1.39472   1.47982
H     4.59711  -0.52633  -0.29192
H     4.77145   1.12394   0.36986
H     4.04912  -0.17176   1.36656
H     2.58810   1.59475  -0.28191
H     0.05270  -1.58203  -0.91132
H    -1.96509  -1.11954  -1.45004
H    -3.17673   2.66198   0.11975
H    -3.26344   1.79580  -1.43472
H    -1.74171   2.59611  -0.94013
H    -2.93731  -1.14388   0.85317
H    -3.99465   0.27057   1.11728
H    -3.87851  -0.43814  -0.50382
H    -0.64274   1.87709   1.16578
H     0.34985   0.10906   2.40451
27

C     4.12775   0.23666   0.34757
N     2.83274   0.61333  -0.17639
C     1.88567  -0.29694  -0.45422
O     2.03874  -1.52080  -0.32318
N     0.69901   0.29333  -0.92602
N    -0.19069  -0.61121  -1.15350
N    -1.36836  -0.30941  -1.50434
C    -2.23195   0.83160   0.23752
C    -2.62602   2.04269  -0.56317
C    -3.30790  -0.21712   0.41159
C    -1.12006   0.90678   1.04748
C    -0.45338  -0.19321   1.69107
O    -0.64389  -1.39614   1.47561
H     4.59692  -0.52627  -0.29213
H     4.77134   1.12400   0.36974
H     4.04889  -0.17175   1.36637
H     2.58777   1.59487  -0.28148
H     0.05028  -1.58160  -0.91116
H    -1.96902  -1.11494  -1.44678
H    -3.17326   2.65797   0.12228
H    -3.26448   1.79745  -1.43505
H    -1.74149   2.59603  -0.94197
H    -2.93788  -1.14365   0.85346
H    -3.99068   0.27427   1.11757
H    -3.88080  -0.43838  -0.50236
H    -0.64770   1.87791   1.16952
H     0.34803   0.10916   2.40639
27

C     4.12746   0.23686   0.34705
N     2.83216   0.61367  -0.17673
C     1.88524  -0.29672  -0.45263
O     2.03730  -1.52017  -0.32418
N     0.69504   0.29499  -0.92045
N    -0.19368  -0.60788  -1.15039
N    -1.37961  -0.29650  -1.47802
C    -2.21864   0.81579   0.21105
C    -2.62190   2.03831  -0.56772
C    -3.30647  -0.21596   0.41030
C    -1.11633   0.90352   1.04481
C    -0.45303  -0.19228   1.69028
O    -0.64155  -1.39756   1.47140
H     4.59672  -0.52621  -0.29235
H     4.77123   1.12406   0.36962
H     4.04866  -0.17174   1.36618
H     2.58743   1.59500  -0.28105
H     0.04787  -1.58118  -0.91100
H    -1.97296  -1.11034  -1.44351
H    -3.16980   2.65396   0.12481
H    -3.26552   1.79910  -1.43538
H    -1.74126   2.59595  -0.94380
H    -2.93845  -1.14342   0.85375
H    -3.98670   0.27797   1.11785
H    -3.88308  -0.43861  -0.50090
H    -0.65266   1.87873   1.17326
H     0.34622   0.10926   2.40828
27

C     4.12717   0.23706   0.34653
N     2.83158   0.61401  -0.17708
C     1.88481  -0.29650  -0.45104
O     2.03586  -1.51955  -0.32517
N     0.69108   0.29665  -0.91488
N    -0.19668  -0.60454  -1.14727
N    -1.39087  -0.28360  -1.45171
C    -2.20533   0.79998   0.18457
C    -2.61779   2.03392  -0.57228
C    -3.30504  -0.21479   0.40901
C    -1.11259   0.90027   1.04213
C    -0.45268  -0.19135   1.68950
O    -0.63922  -1.39898   1.46719
H     4.59652  -0.52615  -0.29256
H     4.77113   1.12413   0.36950
H     4.04843  -0.17173   1.36599
H     2.58710   1.59512  -0.28062
H     0.04545  -1.58075  -0.91084
H    -1.97689  -1.10573  -1.44024
H    -3.16634   2.64995   0.12735
H    -3.26656   1.80075  -1.43571
H    -1.74104   2.59588  -0.94564
H    -2.93902  -1.14319   0.85404
H    -3.98273   0.28166   1.11813
H    -3.88536  -0.43885  -0.49943
H    -0.65763   1.87956   1.17700
H     0.34441   0.10937   2.41017
27

C     4.12688   0.23726   0.34601
N     2.83100   0.61436  -0.17743
C     1.88438  -0.29628  -0.44945
O     2.03443  -1.51892  -0.32617
N     0.68712   0.29831  -0.90931
N    -0.19967  -0.60120  -1.14415
N    -1.40213  -0.27069  -1.42539
C    -2.19202   0.78416   0.15810
C    -2.61367   2.02954  -0.57684
C    -3.30360  -0.21363   0.40772
C    -1.10886   0.89701   1.03946
C    -0.45233  -0.19042   1.68871
O    -0.63688  -1.40040   1.46298
H     4.59633  -0.52609  -0.29278
H     4.77102   1.12419   0.36938
H     4.04820  -0.17172   1.36581
H     2.58676   1.59524  -0.28018
H     0.04304  -1.58032  -0.91068
H    -1.98083  -1.10113  -1.43697
H    -3.16288   2.64594   0.12988
H    -3.26760   1.80240  -1.43605
H    -1.74081   2.59580  -0.94747
H    -2.93959  -1.14296   0.85433
H    -3.97875   0.28536   1.11842
H    -3.88764  -0.43909  -0.49797
H    -0.66259   1.88038   1.18074
H     0.34259   0.10947   2.41205
27

C     4.12659   0.23746   0.34549
N     2.83041   0.61470  -0.17777
C     1.88396  -0.29606  -0.44787
O     2.03299  -1.51830  -0.32716
N     0.68316   0.29997  -0.90374
N    -0.20267  -0.59787  -1.14104
N    -1.41339  -0.25779  -1.39908
C    -2.17871   0.76835   0.13163
C    -2.60955   2.02516  -0.58139
C    -3.30217  -0.21246   0.40643
C    -1.10513   0.89375   1.03678
C    -0.45198  -0.18949   1.68793
O    -0.63455  -1.40182   1.45877
H     4.59613  -0.52603  -0.29299
H     4.77091   1.12425   0.36926
H     4.04797  -0.17171   1.36562
H     2.58643   1.59537  -0.27975
H     0.04062  -1.57990  -0.91052
H    -1.98476  -1.09653  -1.43370
H    -3.15941   2.64193   0.13242
H    -3.26864   1.80405  -1.43638
H    -1.74059   2.59573  -0.94931
H    -2.94016  -1.14273   0.85462
H    -3.97478   0.28906   1.11870
H    -3.88993  -0.43933  -0.49650
H    -0.66755   1.88120   1.18447
H     0.34078   0.10957   2.41394
27

C     4.12630   0.23766   0.34497
N     2.82983   0.61504  -0.17812
C     1.88353  -0.29584  -0.44628
O     2.03155  -1.51768  -0.32816
N     0.67920   0.30163  -0.89817
N    -0.20566  -0.59453  -1.13792
N    -1.42464  -0.24489  -1.37276
C    -2.16541   0.75253   0.10516
C    -2.60544   2.02077  -0.58595
C    -3.30074  -0.21130   0.40514
C    -1.10139   0.89050   1.03411
C    -0.45163  -0.18857   1.68714
O    -0.63222  -1.40324   1.45456
H     4.59593  -0.52597  -0.29321
H     4.77080   1.12431   0.36914
H     4.04775  -0.17170   1.36543
H     2.58609   1.59549  -0.27932
H     0.03821  -1.57947  -0.91036
H    -1.98870  -1.09192  -1.43043
H    -3.15595   2.63792   0.13495
H    -3.26968   1.80570  -1.43671
H    -1.74037   2.59565  -0.95114
H    -2.94073  -1.14250   0.85491
H    -3.97080   0.29276   1.11899
H    -3.89221  -0.43957  -0.49504
H    -0.67252   1.88203   1.18821
H     0.33896   0.10967   2.41583
27

C     4.12601   0.23786   0.34444
N     2.82925   0.61539  -0.17847
C     1.88310  -0.29562  -0.44469
O     2.03011  -1.51705  -0.32915
N     0.67523   0.30329  -0.89260
N    -0.20865  -0.59120  -1.13480
N    -1.43590  -0.23198  -1.34645
C    -2.15210   0.73672   0.07868
C    -2.60132   2.01639  -0.59050
C    -3.29930  -0.21014   0.40385
C    -1.09766   0.88724   1.03144
C    -0.45128  -0.18764   1.68636
O    -0.62988  -1.40466   1.45035
H     4.59574  -0.52591  -0.29342
H     4.77069   1.12437   0.36902
H     4.04752  -0.17168   1.36524
H     2.58576   1.59562  -0.27889
H     0.03579  -1.57904  -0.91020
H    -1.99263  -1.08732  -1.42716
H    -3.15249   2.63391   0.13748
H    -3.27072   1.80735  -1.43705
H    -1.74014   2.59558  -0.95297
H    -2.94129  -1.14227   0.85520
H    -3.96682   0.29645   1.11927
H    -3.89449  -0.43981  -0.49358
H    -0.67748   1.88285   1.19195
H     0.33715   0.10978   2.41771
27

C     4.12572   0.23806   0.34392
N     2.82867   0.61573  -0.17881
C     1.88267  -0.29541  -0.44310
O     2.02868  -1.51643  -0.33015
N     0.67127   0.30495  -0.88703
N    -0.21165  -0.58786  -1.13169
N    -1.44716  -0.21908  -1.32013
C    -2.13879   0.72090   0.05221
C    -2.59720   2.01201  -0.59506
C    -3.29787  -0.20897   0.40256
C    -1.09393   0.88398   1.02876
C    -0.45093  -0.18671   1.68557
O    -0.62755  -1.40608   1.44614
H     4.59554  -0.52585  -0.29364
H     4.77058   1.12443   0.36890
H     4.04729  -0.17167   1.36506
H     2.58542   1.59574  -0.27846
H     0.03337  -1.57862  -0.91004
H    -1.99657  -1.08272  -1.42389
H    -3.14903   2.62990   0.14002
H    -3.27176   1.80900  -1.43738
H    -1.73992   2.59550  -0.95481
H    -2.94186  -1.14204   0.85549
H    -3.96285   0.30015   1.11955
H    -3.89677  -0.44005  -0.49211
H    -0.68244   1.88367   1.19569
H     0.33534   0.10988   2.41960
27

C     4.12543   0.23826   0.34340
N     2.82809   0.61607  -0.17916
C     1.88225  -0.29519  -0.44151
O     2.02724  -1.51580  -0.33114
N     0.66731   0.30661  -0.88146
N    -0.21464  -0.58453  -1.12857
N    -1.45842  -0.20617  -1.29382
C    -2.12548   0.70509   0.02574
C    -2.59309   2.00762  -0.59962
C    -3.29644  -0.20781   0.40127
C    -1.09019   0.88073   1.02609
C    -0.45058  -0.18578   1.68479
O    -0.62521  -1.40750   1.44193
H     4.59534  -0.52579  -0.29385
H     4.77047   1.12449   0.36878
H     4.04706  -0.17166   1.36487
H     2.58508   1.59587  -0.27803
H     0.03096  -1.57819  -0.90988
H    -2.00050  -1.07812  -1.42063
H    -3.14557   2.62589   0.14255
H    -3.27280   1.81066  -1.43771
H    -1.73970   2.59542  -0.95664
H    -2.94243  -1.14181   0.85578
H    -3.95887   0.30385   1.11984
H    -3.89906  -0.44029  -0.49065
H    -0.68740   1.88450   1.19943
H     0.33352   0.10998   2.42149
27

C     4.12514   0.23846   0.34288
N     2.82751   0.61642  -0.17951
C     1.88182  -0.29497  -0.43992
O     2.02580  -1.51518  -0.33214
N     0.66335   0.30827  -0.87589
N    -0.21764  -0.58119  -1.12545
N    -1.46967  -0.19327  -1.26750
C    -2.11217   0.68927  -0.00074
C    -2.58897   2.00324  -0.60417
C    -3.29501  -0.20665   0.39998
C    -1.08646   0.87747   1.02342
C    -0.45024  -0.18485   1.68400
O    -0.62288  -1.40892   1.43773
H     4.59515  -0.52573  -0.29407
H     4.77036   1.12456   0.36866
H     4.04683  -0.17165   1.36468
H     2.58475   1.59599  -0.27760
H     0.02854  -1.57776  -0.90972
H    -2.00444  -1.07351  -1.41736
H    -3.14210   2.62188   0.14508
H    -3.27384   1.81231  -1.43804
H    -1.73947   2.59535  -0.95848
H    -2.94300  -1.14158   0.85607
H    -3.95490   0.30755   1.12012
H    -3.90134  -0.44053  -0.48918
H    -0.69237   1.88532   1.20316
H     0.33171   0.11008   2.42337
27

C     4.12485   0.23865   0.34236
N     2.82693   0.61676  -0.17986
C     1.88139  -0.29475  -0.43833
O     2.02436  -1.51455  -0.33313
N     0.65939   0.30993  -0.87032
N    -0.22063  -0.57786  -1.12234
N    -1.48093  -0.18037  -1.24119
C    -2.09886   0.67346  -0.02721
C    -2.58485   1.99886  -0.60873
C    -3.29357  -0.20548   0.39869
C    -1.08273   0.87421   1.02074
C    -0.44989  -0.18392   1.68322
O    -0.62054  -1.41034   1.43352
H     4.59495  -0.52567  -0.29428
H     4.77026   1.12462   0.36854
H     4.04660  -0.17164   1.36449
H     2.58441   1.59611  -0.27717
H     0.02613  -1.57734  -0.90956
H    -2.00837  -1.06891  -1.41409
H    -3.13864   2.61787   0.14762
H    -3.27488   1.81396  -1.43838
H    -1.73925   2.59527  -0.96031
H    -2.94357  -1.14135   0.85636
H    -3.95092   0.31124   1.12041
H    -3.90362  -0.44077  -0.48772
H    -0.69733   1.88614   1.20690
H     0.32989   0.11018   2.42526
27

C     4.12456   0.23885   0.34184
N     2.82634   0.61710  -0.18020
C     1.88096  -0.29453  -0.43674
O     2.02292  -1.51393  -0.33413
N     0.65542   0.31159  -0.86475
N    -0.22363  -0.57452  -1.11922
N    -1.49219  -0.16746  -1.21487
C    -2.08555   0.65764  -0.05368
C    -2.58074   1.99447  -0.61328
C    -3.29214  -0.20432   0.39739
C    -1.07899   0.87096   1.01807
C    -0.44954  -0.18300   1.68243
O    -0.61821  -1.41176   1.42931
H     4.59475  -0.52561  -0.29450
H     4.77015   1.12468   0.36841
H     4.04638  -0.17163   1.36431
H     2.58408   1.59624  -0.27674
H     0.02371  -1.57691  -0.90940
H    -2.01231  -1.06431  -1.41082
H    -3.13518   2.61386   0.15015
H    -3.27592   1.81561  -1.43871
H    -1.73903   2.59520  -0.96215
H    -2.94414  -1.14112   0.85665
H    -3.94695   0.31494   1.12069
H    -3.90590  -0.44101  -0.48626
H    -0.70229   1.88696   1.21064
H     0.32808   0.11029   2.42715
27

C     4.12427   0.23905   0.34132
N     2.82576   0.61744  -0.18055
C     1.88054  -0.29431  -0.43515
O     2.02149  -1.51331  -0.33512
N     0.65146   0.31325  -0.85918
N    -0.22662  -0.57118  -1.11610
N    -1.50345  -0.15456  -1.18856
C    -2.07224   0.64183  -0.08015
C    -2.57662   1.99009  -0.61784
C    -3.29071  -0.20315   0.39610
C    -1.07526   0.86770   1.01540
C    -0.44919  -0.18207   1.68165
O    -0.61587  -1.41318   1.42510
H     4.59456  -0.52555  -0.29471
H     4.77004   1.12474   0.36829
H     4.04615  -0.17162   1.36412
H     2.58374   1.59636  -0.27631
H     0.02130  -1.57648  -0.90924
H    -2.01624  -1.05970  -1.40755
H    -3.13172   2.60985   0.15269
H    -3.27696   1.81726  -1.43904
H    -1.73880   2.59512  -0.96398
H    -2.94471  -1.14089   0.85694
H    -3.94297   0.31864   1.12097
H    -3.90819  -0.44124  -0.48479
H    -0.70725   1.88779   1.21438
H     0.32627   0.11039   2.42903
27

C     4.12398   0.23925   0.34080
N     2.82518   0.61779  -0.18090
C     1.88011  -0.29409  -0.43356
O     2.02005  -1.51268  -0.33612
N     0.64750   0.31491  -0.85361
N    -0.22962  -0.56785  -1.11299
N    -1.51471  -0.14165  -1.16224
C    -2.05893   0.62602  -0.10663
C    -2.57250   1.98571  -0.62239
C    -3.28927  -0.20199   0.39481
C    -1.07153   0.86445   1.01272
C    -0.44884  -0.18114   1.68087
O    -0.61354  -1.41460   1.42089
H     4.59436  -0.52548  -0.29493
H     4.76993   1.12480   0.36817
H     4.04592  -0.17161   1.36393
H     2.58341   1.59649  -0.27588
H     0.01888  -1.57606  -0.90908
H    -2.02018  -1.05510  -1.40428
H    -3.12825   2.60584   0.15522
H    -3.27800   1.81891  -1.43937
H    -1.73858   2.59504  -0.96581
H    -2.94528  -1.14066   0.85723
H    -3.93899   0.32234   1.12126
H    -3.91047  -0.44148  -0.48333
H    -0.71222   1.88861   1.21812
H     0.32445   0.11049   2.43092
27

C     4.12369   0.23945   0.34028
N     2.82460   0.61813  -0.18124
C     1.87968  -0.29387  -0.43198
O     2.01861  -1.51206  -0.33711
N     0.64354   0.31657  -0.84804
N    -0.23261  -0.56451  -1.10987
N    -1.52596  -0.12875  -1.13593
C    -2.04562   0.61020  -0.13310
C    -2.56838   1.98132  -0.62695
C    -3.28784  -0.20083   0.39352
C    -1.06779   0.86119   1.01005
C    -0.44849  -0.18021   1.68008
O    -0.61120  -1.41602   1.41668
H     4.59416  -0.52542  -0.29514
H     4.76982   1.12486   0.36805
H     4.04569  -0.17160   1.36374
H     2.58307   1.59661  -0.27545
H     0.01646  -1.57563  -0.90892
H    -2.02411  -1.05050  -1.40101
H    -3.12479   2.60183   0.15775
H    -3.27904   1.82056  -1.43971
H    -1.73835   2.59497  -0.96765
H    -2.94585  -1.14043   0.85752
H    -3.93502   0.32603   1.12154
H    -3.91275  -0.44172  -0.48186
H    -0.71718   1.88943   1.22185
H     0.32264   0.11059   2.43281
27

C     4.12340   0.23965   0.33976
N     2.82402   0.61847  -0.18159
C     1.87925  -0.29365  -0.43039
O     2.01717  -1.51143  -0.33811
N     0.63958   0.31823  -0.84247
N    -0.23561  -0.56118  -1.10675
N    -1.53722  -0.11584  -1.10961
C    -2.03231   0.59439  -0.15957
C    -2.56427   1.97694  -0.63151
C    -3.28641  -0.19966   0.39223
C    -1.06406   0.85793   1.00738
C    -0.44814  -0.17928   1.67930
O    -0.60887  -1.41744   1.41247
H     4.59397  -0.52536  -0.29536
H     4.76971   1.12492   0.36793
H     4.04546  -0.17159   1.36356
H     2.58274   1.59673  -0.27501
H     0.01405  -1.57521  -0.90876
H    -2.02805  -1.04590  -1.39775
H    -3.12133   2.59782   0.16029
H    -3.28008   1.82221  -1.44004
H    -1.73813   2.59489  -0.96948
H    -2.94642  -1.14020   0.85781
H    -3.93104   0.32973   1.12183
H    -3.91503  -0.44196  -0.48040
H    -0.72214   1.89026   1.22559
H     0.32082   0.11070   2.43469
27

C     4.12311   0.23985   0.33924
N     2.82344   0.61882  -0.18194
C     1.87883  -0.29343  -0.42880
O     2.01573  -1.51081  -0.33910
N     0.63561   0.31989  -0.83690
N    -0.23860  -0.55784  -1.10363
N    -1.54848  -0.10294  -1.08330
C    -2.01901   0.57857  -0.18605
C    -2.56015   1.97256  -0.63606
C    -3.28498  -0.19850   0.39094
C    -1.06033   0.85468   1.00470
C    -0.44779  -0.17836   1.67851
O    -0.60654  -1.41886   1.40826
H     4.59377  -0.52530  -0.29557
H     4.76960   1.12498   0.36781
H     4.04523  -0.17158   1.36337
H     2.58240   1.59686  -0.27458
H     0.01163  -1.57478  -0.90859
H    -2.03198  -1.04129  -1.39448
H    -3.11787   2.59381   0.16282
H    -3.28112   1.82386  -1.44037
H    -1.73791   2.59482  -0.97132
H    -2.94699  -1.13997   0.85810
H    -3.92707   0.33343   1.12211
H    -3.91732  -0.44220  -0.47894
H    -0.72711   1.89108   1.22933
H     0.31901   0.11080   2.43658
27

C     4.12340   0.23965   0.33976
N     2.82402   0.61847  -0.18159
C     1.87925  -0.29365  -0.43039
O     2.01717  -1.51143  -0.33811
N     0.63958   0.31823  -0.84247
N    -0.23561  -0.56118  -1.10675
N    -1.53722  -0.11584  -1.10961
C    -2.03231   0.59439  -0.15957
C    -2.56427   1.97694  -0.63151
C    -3.28641  -0.19966   0.39223
C    -1.06406   0.85793   1.00738
C    -0.44814  -0.17928   1.67930
O    -0.60887  -1.41744   1.41247
H     4.59397  -0.52536  -0.29536
H     4.76971   1.12492   0.36793
H     4.04546  -0.17159   1.36356
H     2.58274   1.59673  -0.27501
H     0.01405  -1.57521  -0.90876
H    -2.02805  -1.04590  -1.39775
H    -3.12133   2.59782   0.16029
H    -3.28008   1.82221  -1.44004
H    -1.73813   2.59489  -0.96948
H    -2.94642  -1.14020   0.85781
H    -3.93104   0.32973   1.12183
H    -3.91503  -0.44196  -0.48040
H    -0.72214   1.89026   1.22559
H     0.32082   0.11070   2.43469
27

C     4.12369   0.23945   0.34028
N     2.82460   0.61813  -0.18124
C     1.87968  -0.29387  -0.43198
O     2.01861  -1.51206  -0.33711
N     0.64354   0.31657  -0.84804
N    -0.23261  -0.56451  -1.10987
N    -1.52596  -0.12875  -1.13593
C    -2.04562   0.61020  -0.13310
C    -2.56838   1.98132  -0.62695
C    -3.28784  -0.20083   0.39352
C    -1.06779   0.86119   1.01005
C    -0.44849  -0.18021   1.68008
O    -0.61120  -1.41602   1.41668
H     4.59416  -0.52542  -0.29514
H     4.76982   1.12486   0.36805
H     4.04569  -0.17160   1.36374
H     2.58307   1.59661  -0.27545
H     0.01646  -1.57563  -0.90892
H    -2.02411  -1.05050  -1.40101
H    -3.12479   2.60183   0.15775
H    -3.27904   1.82056  -1.43971
H    -1.73835   2.59497  -0.96765
H    -2.94585  -1.14043   0.85752
H    -3.93502   0.32603   1.12154
H    -3.91275  -0.44172  -0.48186
H    -0.71718   1.88943   1.22185
H     0.32264   0.11059   2.43281
27

C     4.12398   0.23925   0.34080
N     2.82518   0.61779  -0.18090
C     1.88011  -0.29409  -0.43356
O     2.02005  -1.51268  -0.33612
N     0.64750   0.31491  -0.85361
N    -0.22962  -0.56785  -1.11299
N    -1.51471  -0.14165  -1.16224
C    -2.05893   0.62602  -0.10663
C    -2.57250   1.98571  -0.62239
C    -3.28927  -0.20199   0.39481
C    -1.07153   0.86445   1.01272
C    -0.44884  -0.18114   1.68087
O    -0.61354  -1.41460   1.42089
H     4.59436  -0.52548  -0.29493
H     4.76993   1.12480   0.36817
H     4.04592  -0.17161   1.36393
H     2.58341   1.59649  -0.27588
H     0.01888  -1.57606  -0.90908
H    -2.02018  -1.05510  -1.40428
H    -3.12825   2.60584   0.15522
H    -3.27800   1.81891  -1.43937
H    -1.73858   2.59504  -0.96581
H    -2.94528  -1.14066   0.85723
H    -3.93899   0.32234   1.12126
H    -3.91047  -0.44148  -0.48333
H    -0.71222   1.88861   1.21812
H     0.32445   0.11049   2.43092
27

C     4.12427   0.23905   0.34132
N     2.82576   0.61744  -0.18055
C     1.88054  -0.29431  -0.43515
O     2.02149  -1.51331  -0.33512
N     0.65146   0.31325  -0.85918
N    -0.22662  -0.57118  -1.11610
N    -1.50345  -0.15456  -1.18856
C    -2.07224   0.64183  -0.08015
C    -2.57662   1.99009  -0.61784
C    -3.29071  -0.20315   0.39610
C    -1.07526   0.86770   1.01540
C    -0.44919  -0.18207   1.68165
O    -0.61587  -1.41318   1.42510
H     4.59456  -0.52555  -0.29471
H     4.77004   1.12474   0.36829
H     4.04615  -0.17162   1.36412
H     2.58374   1.59636  -0.27631
H     0.02130  -1.57648  -0.90924
H    -2.01624  -1.05970  -1.40755
H    -3.13172   2.60985   0.15269
H    -3.27696   1.81726  -1.43904
H    -1.73880   2.59512  -0.96398
H    -2.94471  -1.14089   0.85694
H    -3.94297   0.31864   1.12097
H    -3.90819  -0.44124  -0.48479
H    -0.70725   1.88779   1.21438
H     0.32627   0.11039   2.42903
27

C     4.12456   0.23885   0.34184
N     2.82634   0.61710  -0.18020
C     1.88096  -0.29453  -0.43674
O     2.02292  -1.51393  -0.33413
N     0.65542   0.31159  -0.86475
N    -0.22363  -0.57452  -1.11922
N    -1.49219  -0.16746  -1.21487
C    -2.08555   0.65764  -0.05368
C    -2.58074   1.99447  -0.61328
C    -3.29214  -0.20432   0.39739
C    -1.07899   0.87096   1.01807
C    -0.44954  -0.18300   1.68243
O    -0.61821  -1.41176   1.42931
H     4.59475  -0.52561  -0.29450
H     4.77015   1.12468   0.36841
H     4.04638  -0.17163   1.36431
H     2.58408   1.59624  -0.27674
H     0.02371  -1.57691  -0.90940
H    -2.01231  -1.06431  -1.41082
H    -3.13518   2.61386   0.15015
H    -3.27592   1.81561  -1.43871
H    -1.73903   2.59520  -0.96215
H    -2.94414  -1.14112   0.85665
H    -3.94695   0.31494   1.12069
H    -3.90590  -0.44101  -0.48626
H    -0.70229   1.88696   1.21064
H     0.32808   0.11029   2.42715
27

C     4.12485   0.23865   0.34236
N     2.82693   0.61676  -0.17986
C     1.88139  -0.29475  -0.43833
O     2.02436  -1.51455  -0.33313
N     0.65939   0.30993  -0.87032
N    -0.22063  -0.57786  -1.12234
N    -1.48093  -0.18037  -1.24119
C    -2.09886   0.67346  -0.02721
C    -2.58485   1.99886  -0.60873
C    -3.29357  -0.20548   0.39869
C    -1.08273   0.87421   1.02074
C    -0.44989  -0.18392   1.68322
O    -0.62054  -1.41034   1.43352
H     4.59495  -0.52567  -0.29428
H     4.77026   1.12462   0.36854
H     4.04660  -0.17164   1.36449
H     2.58441   1.59611  -0.27717
H     0.02613  -1.57734  -0.90956
H    -2.00837  -1.06891  -1.41409
H    -3.13864   2.61787   0.14762
H    -3.27488   1.81396  -1.43838
H    -1.73925   2.59527  -0.96031
H    -2.94357  -1.14135   0.85636
H    -3.95092   0.31124   1.12041
H    -3.90362  -0.44077  -0.48772
H    -0.69733   1.88614   1.20690
H     0.32989   0.11018   2.42526
27

C     4.12514   0.23846   0.34288
N     2.82751   0.61642  -0.17951
C     1.88182  -0.29497  -0.43992
O     2.02580  -1.51518  -0.33214
N     0.66335   0.30827  -0.87589
N    -0.21764  -0.58119  -1.12545
N    -1.46967  -0.19327  -1.26750
C    -2.11217   0.68927  -0.00074
C    -2.58897   2.00324  -0.60417
C    -3.29501  -0.20665   0.39998
C    -1.08646   0.87747   1.02342
C    -0.45024  -0.18485   1.68400
O    -0.62288  -1.40892   1.43773
H     4.59515  -0.52573  -0.29407
H     4.77036   1.12456   0.36866
H     4.04683  -0.17165   1.36468
H     2.58475   1.59599  -0.27760
H     0.02854  -1.57776  -0.90972
H    -2.00444  -1.07351  -1.41736
H    -3.14210   2.62188   0.14508
H    -3.27384   1.81231  -1.43804
H    -1.73947   2.59535  -0.95848
H    -2.94300  -1.14158   0.85607
H    -3.95490   0.30755   1.12012
H    -3.90134  -0.44053  -0.48918
H    -0.69237   1.88532   1.20316
H     0.33171   0.11008   2.42337
27

C     4.12543   0.23826   0.34340
N     2.82809   0.61607  -0.17916
C     1.88225  -0.29519  -0.44151
O     2.02724  -1.51580  -0.33114
N     0.66731   0.30661  -0.88146
N    -0.21464  -0.58453  -1.12857
N    -1.45842  -0.20617  -1.29382
C    -2.12548   0.70509   0.02574
C    -2.59309   2.00762  -0.59962
C    -3.29644  -0.20781   0.40127
C    -1.09019   0.88073   1.02609
C    -0.45058  -0.18578   1.68479
O    -0.62521  -1.40750   1.44193
H     4.59534  -0.52579  -0.29385
H     4.77047   1.12449   0.36878
H     4.04706  -0.17166   1.36487
H     2.58508   1.59587  -0.27803
H     0.03096  -1.57819  -0.90988
H    -2.00050  -1.07812  -1.42063
H    -3.14557   2.62589   0.14255
H    -3.27280   1.81066  -1.43771
H    -1.73970   2.59542  -0.95664
H    -2.94243  -1.14181   0.85578
H    -3.95887   0.30385   1.11984
H    -3.89906  -0.44029  -0.49065
H    -0.68740   1.88450   1.19943
H     0.33352   0.10998   2.42149
27

C     4.12572   0.23806   0.34392
N     2.82867   0.61573  -0.17881
C     1.88267  -0.29541  -0.44310
O     2.02868  -1.51643  -0.33015
N     0.67127   0.30495  -0.88703
N    -0.21165  -0.58786  -1.13169
N    -1.44716  -0.21908  -1.32013
C    -2.13879   0.72090   0.05221
C    -2.59720   2.01201  -0.59506
C    -3.29787  -0.20897   0.40256
C    -1.09393   0.88398   1.02876
C    -0.45093  -0.18671   1.68557
O    -0.62755  -1.40608   1.44614
H     4.59554  -0.52585  -0.29364
H     4.77058   1.12443   0.36890
H     4.04729  -0.17167   1.36506
H     2.58542   1.59574  -0.27846
H     0.03337  -1.57862  -0.91004
H    -1.99657  -1.08272  -1.42389
H    -3.14903   2.62990   0.14002
H    -3.27176   1.80900  -1.43738
H    -1.73992   2.59550  -0.95481
H    -2.94186  -1.14204   0.85549
H    -3.96285   0.30015   1.11955
H    -3.89677  -0.44005  -0.49211
H    -0.68244   1.88367   1.19569
H     0.33534   0.10988   2.41960
27

C     4.12601   0.23786   0.34444
N     2.82925   0.61539  -0.17847
C     1.88310  -0.29562  -0.44469
O     2.03011  -1.51705  -0.32915
N     0.67523   0.30329  -0.89260
N    -0.20865  -0.59120  -1.13480
N    -1.43590  -0.23198  -1.34645
C    -2.15210   0.73672   0.07868
C    -2.60132   2.01639  -0.59050
C    -3.29930  -0.21014   0.40385
C    -1.09766   0.88724   1.03144
C    -0.45128  -0.18764   1.68636
O    -0.62988  -1.40466   1.45035
H     4.59574  -0.52591  -0.29342
H     4.77069   1.12437   0.36902
H     4.04752  -0.17168   1.36524
H     2.58576   1.59562  -0.27889
H     0.03579  -1.57904  -0.91020
H    -1.99263  -1.08732  -1.42716
H    -3.15249   2.63391   0.13748
H    -3.27072   1.80735  -1.43705
H    -1.74014   2.59558  -0.95297
H    -2.94129  -1.14227   0.85520
H    -3.96682   0.29645   1.11927
H    -3.89449  -0.43981  -0.49358
H    -0.67748   1.88285   1.19195
H     0.33715   0.10978   2.41771
27

C     4.12630   0.23766   0.34497
N     2.82983   0.61504  -0.17812
C     1.88353  -0.29584  -0.44628
O     2.03155  -1.51768  -0.32816
N     0.67920   0.30163  -0.89817
N    -0.20566  -0.59453  -1.13792
N    -1.42464  -0.24489  -1.37276
C    -2.16541   0.75253   0.10516
C    -2.60544   2.02077  -0.58595
C    -3.30074  -0.21130   0.40514
C    -1.10139   0.89050   1.03411
C    -0.45163  -0.18857   1.68714
O    -0.63222  -1.40324   1.45456
H     4.59593  -0.52597  -0.29321
H     4.77080   1.12431   0.36914
H     4.04775  -0.17170   1.36543
H     2.58609   1.59549  -0.27932
H     0.03821  -1.57947  -0.91036
H    -1.98870  -1.09192  -1.43043
H    -3.15595   2.63792   0.13495
H    -3.26968   1.80570  -1.43671
H    -1.74037   2.59565  -0.95114
H    -2.94073  -1.14250   0.85491
H    -3.97080   0.29276   1.11899
H    -3.89221  -0.43957  -0.49504
H    -0.67252   1.88203   1.18821
H     0.33896   0.10967   2.41583
27

C     4.12659   0.23746   0.34549
N     2.83041   0.61470  -0.17777
C     1.88396  -0.29606  -0.44787
O     2.03299  -1.51830  -0.32716
N     0.68316   0.29997  -0.90374
N    -0.20267  -0.59787  -1.14104
N    -1.41339  -0.25779  -1.39908
C    -2.17871   0.76835   0.13163
C    -2.60955   2.02516  -0.58139
C    -3.30217  -0.21246   0.40643
C    -1.10513   0.89375   1.03678
C    -0.45198  -0.18949   1.68793
O    -0.63455  -1.40182   1.45877
H     4.59613  -0.52603  -0.29299
H     4.77091   1.12425   0.36926
H     4.04797  -0.17171   1.36562
H     2.58643   1.59537  -0.27975
H     0.04062  -1.57990  -0.91052
H    -1.98476  -1.09653  -1.43370
H    -3.15941   2.64193   0.13242
H    -3.26864   1.80405  -1.43638
H    -1.74059   2.59573  -0.94931
H    -2.94016  -1.14273   0.85462
H    -3.97478   0.28906   1.11870
H    -3.88993  -0.43933  -0.49650
H    -0.66755   1.88120   1.18447
H     0.34078   0.10957   2.41394
27

C     4.12688   0.23726   0.34601
N     2.83100   0.61436  -0.17743
C     1.88438  -0.29628  -0.44945
O     2.03443  -1.51892  -0.32617
N     0.68712   0.29831  -0.90931
N    -0.19967  -0.60120  -1.14415
N    -1.40213  -0.27069  -1.42539
C    -2.19202   0.78416   0.15810
C    -2.61367   2.02954  -0.57684
C    -3.30360  -0.21363   0.40772
C    -1.10886   0.89701   1.03946
C    -0.45233  -0.19042   1.68871
O    -0.63688  -1.40040   1.46298
H     4.59633  -0.52609  -0.29278
H     4.77102   1.12419   0.36938
H     4.04820  -0.17172   1.36581
H     2.58676   1.59524  -0.28018
H     0.04304  -1.58032  -0.91068
H    -1.98083  -1.10113  -1.43697
H    -3.16288   2.64594   0.12988
H    -3.26760   1.80240  -1.43605
H    -1.74081   2.59580  -0.94747
H    -2.93959  -1.14296   0.85433
H    -3.97875   0.28536   1.11842
H    -3.88764  -0.43909  -0.49797
H    -0.66259   1.88038   1.18074
H     0.34259   0.10947   2.41205
27

C     4.12717   0.23706   0.34653
N     2.83158   0.61401  -0.17708
C     1.88481  -0.29650  -0.45104
O     2.03586  -1.51955  -0.32517
N     0.69108   0.29665  -0.91488
N    -0.19668  -0.60454  -1.14727
N    -1.39087  -0.28360  -1.45171
C    -2.20533   0.79998   0.18457
C    -2.61779   2.03392  -0.57228
C    -3.30504  -0.21479   0.40901
C    -1.11259   0.90027   1.04213
C    -0.45268  -0.19135   1.68950
O    -0.63922  -1.39898   1.46719
H     4.59652  -0.52615  -0.29256
H     4.77113   1.12413   0.36950
H     4.04843  -0.17173   1.36599
H     2.58710   1.59512  -0.28062
H     0.04545  -1.58075  -0.91084
H    -1.97689  -1.10573  -1.44024
H    -3.16634   2.64995   0.12735
H    -3.26656   1.80075  -1.43571
H    -1.74104   2.59588  -0.94564
H    -2.93902  -1.14319   0.85404
H    -3.98273   0.28166   1.11813
H    -3.88536  -0.43885  -0.49943
H    -0.65763   1.87956   1.17700
H     0.34441   0.10937   2.41017
27

C     4.12746   0.23686   0.34705
N     2.83216   0.61367  -0.17673
C     1.88524  -0.29672  -0.45263
O     2.03730  -1.52017  -0.32418
N     0.69504   0.29499  -0.92045
N    -0.19368  -0.60788  -1.15039
N    -1.37961  -0.29650  -1.47802
C    -2.21864   0.81579   0.21105
C    -2.62190   2.03831  -0.56772
C    -3.30647  -0.21596   0.41030
C    -1.11633   0.90352   1.04481
C    -0.45303  -0.19228   1.69028
O    -0.64155  -1.39756   1.47140
H     4.59672  -0.52621  -0.29235
H     4.77123   1.12406   0.36962
H     4.04866  -0.17174   1.36618
H     2.58743   1.59500  -0.28105
H     0.04787  -1.58118  -0.91100
H    -1.97296  -1.11034  -1.44351
H    -3.16980   2.65396   0.12481
H    -3.26552   1.79910  -1.43538
H    -1.74126   2.59595  -0.94380
H    -2.93845  -1.14342   0.85375
H    -3.98670   0.27797   1.11785
H    -3.88308  -0.43861  -0.50090
H    -0.65266   1.87873   1.17326
H     0.34622   0.10926   2.40828
27

C     4.12775   0.23666   0.34757
N     2.83274   0.61333  -0.17639
C     1.88567  -0.29694  -0.45422
O     2.03874  -1.52080  -0.32318
N     0.69901   0.29333  -0.92602
N    -0.19069  -0.61121  -1.15350
N    -1.36836  -0.30941  -1.50434
C    -2.23195   0.83160   0.23752
C    -2.62602   2.04269  -0.56317
C    -3.30790  -0.21712   0.41159
C    -1.12006   0.90678   1.04748
C    -0.45338  -0.19321   1.69107
O    -0.64389  -1.39614   1.47561
H     4.59692  -0.52627  -0.29213
H     4.77134   1.12400   0.36974
H     4.04889  -0.17175   1.36637
H     2.58777   1.59487  -0.28148
H     0.05028  -1.58160  -0.91116
H    -1.96902  -1.11494  -1.44678
H    -3.17326   2.65797   0.12228
H    -3.26448   1.79745  -1.43505
H    -1.74149   2.59603  -0.94197
H    -2.93788  -1.14365   0.85346
H    -3.99068   0.27427   1.11757
H    -3.88080  -0.43838  -0.50236
H    -0.64770   1.87791   1.16952
H     0.34803   0.10916   2.40639
27

C     4.12804   0.23646   0.34809
N     2.83332   0.61298  -0.17604
C     1.88609  -0.29716  -0.45581
O     2.04018  -1.52142  -0.32218
N     0.70297   0.29167  -0.93159
N    -0.18769  -0.61455  -1.15662
N    -1.35710  -0.32231  -1.53065
C    -2.24526   0.84742   0.26399
C    -2.63014   2.04707  -0.55861
C    -3.30934  -0.21828   0.41288
C    -1.12379   0.91004   1.05015
C    -0.45373  -0.19414   1.69185
O    -0.64622  -1.39472   1.47982
H     4.59711  -0.52633  -0.29192
H     4.77145   1.12394   0.36986
H     4.04912  -0.17176   1.36656
H     2.58810   1.59475  -0.28191
H     0.05270  -1.58203  -0.91132
H    -1.96509  -1.11954  -1.45004
H    -3.17673   2.66198   0.11975
H    -3.26344   1.79580  -1.43472
H    -1.74171   2.59611  -0.94013
H    -2.93731  -1.14388   0.85317
H    -3.99465   0.27057   1.11728
H    -3.87851  -0.43814  -0.50382
H    -0.64274   1.87709   1.16578
H     0.34985   0.10906   2.40451
27

C     4.12833   0.23626   0.34861
N     2.83390   0.61264  -0.17569
C     1.88652  -0.29738  -0.45740
O     2.04162  -1.52204  -0.32119
N     0.70693   0.29001  -0.93716
N    -0.18470  -0.61788  -1.15974
N    -1.34584  -0.33522  -1.55697
C    -2.25857   0.86323   0.29047
C    -2.63426   2.05146  -0.55406
C    -3.31077  -0.21945   0.41418
C    -1.12753   0.91329   1.05283
C    -0.45408  -0.19506   1.69264
O    -0.64856  -1.39330   1.48403
H     4.59731  -0.52639  -0.29170
H     4.77156   1.12388   0.36998
H     4.04934  -0.17177   1.36674
H     2.58844   1.59462  -0.28234
H     0.05512  -1.58246  -0.91148
H    -1.96115  -1.12414  -1.45331
H    -3.18019   2.66599   0.11721
H    -3.26240   1.79414  -1.43438
H    -1.74193   2.59618  -0.93830
H    -2.93674  -1.14411   0.85287
H    -3.99863   0.26687   1.11700
H    -3.87623  -0.43790  -0.50529
H    -0.63778   1.87626   1.16205
H     0.35166   0.10896   2.40262
27

C     4.12862   0.23606   0.34913
N     2.83448   0.61230  -0.17534
C     1.88695  -0.29760  -0.45899
O     2.04305  -1.52267  -0.32019
N     0.71089   0.28835  -0.94272
N    -0.18170  -0.62122  -1.16286
N    -1.33458  -0.34812  -1.58328
C    -2.27188   0.87905   0.31694
C    -2.63837   2.05584  -0.54950
C    -3.31220  -0.22061   0.41547
C    -1.13126   0.91655   1.05550
C    -0.45443  -0.19599   1.69342
O    -0.65089  -1.39188   1.48823
H     4.59751  -0.52645  -0.29149
H     4.77167   1.12382   0.37010
H     4.04957  -0.17178   1.36693
H     2.58877   1.59450  -0.28277
H     0.05753  -1.58288  -0.91164
H    -1.95722  -1.12875  -1.45658
H    -3.18365   2.67000   0.11468
H    -3.26136   1.79249  -1.43405
H    -1.74216   2.59626  -0.93647
H    -2.93617  -1.14434   0.85258
H    -4.00261   0.26317   1.11671
H    -3.87395  -0.43766  -0.50675
H    -0.63281   1.87544   1.15831
H     0.35348   0.10885   2.40073
