10

O 4.212210435 -1.587565928 1.387544484
C 2.769105603 -0.667028592 0.056782396
C 0.027269636 2.203861761 0.560874644
N -1.544499958 0.174482344 0.428116773
C -0.972832899 -1.648714593 -1.281863459
H -0.153174321 3.378782425 2.229109617
H 0.409139803 3.179482289 -1.192666477
H -2.225690989 -0.449269895 2.094367760
H -1.916533893 -3.451412348 -1.045060178
H -0.642534699 -1.042044779 -3.203347338

