12

O 3.138272257 -0.848888124 -1.407474424
C 1.727996560 0.293984599 0.396255140
C -1.746356477 2.089207145 -0.001515806
C -2.237635324 -0.591831401 -1.064531613
C -0.637828771 -1.087568149 1.253071592
O -1.730147333 1.081355108 2.508622145
H 4.682358875 0.062188940 -1.682259707
H 2.760919669 1.270984192 1.897069676
H 0.334514764 2.754536099 -0.459153673
H -4.223048317 -1.096613645 -0.877602210
H -1.472146521 -1.102156344 -2.903649077
H -0.519186285 -2.846480534 2.355082049

