26

C     2.50760  -0.30885  -0.62157
C     1.31941   0.07270   0.27834
C    -0.01040  -1.10922  -0.03138
C    -0.37935  -1.72343   1.26051
N    -0.48725  -2.21665   2.30779
N    -1.06990  -0.36400  -0.69033
C    -0.94638  -0.35866  -2.14191
N    -1.03941   0.96063  -0.14385
C    -1.66663   0.92330   1.20513
C     0.61926   1.40360   0.07231
C     1.07046   2.30778  -1.07924
H     2.21783  -0.24157  -1.67929
H     2.75434  -1.36888  -0.41509
H     3.44776   0.26591  -0.50382
H     1.60538  -0.07078   1.36343
H     0.22240  -1.99992  -0.71456
H    -1.22646  -1.34840  -2.52363
H     0.07347  -0.12031  -2.49871
H    -1.64150   0.39358  -2.53951
H    -2.62322   0.35413   1.29157
H    -1.85979   1.95299   1.48391
H    -0.97326   0.49034   1.95443
H     0.56330   2.01329   1.02263
H     0.29969   3.08248  -1.23017
H     1.16545   1.74679  -2.01933
H     2.04127   2.85669  -0.94802
26

C     2.50845  -0.30976  -0.62182
C     1.33559   0.08932   0.28300
C    -0.03009  -1.12312  -0.03475
C    -0.38185  -1.72378   1.26037
N    -0.48565  -2.21613   2.30896
N    -1.06405  -0.36049  -0.68997
C    -0.94598  -0.35815  -2.14305
N    -1.06171   0.95122  -0.14785
C    -1.66710   0.92085   1.20567
C     0.64140   1.40995   0.07709
C     1.07210   2.30980  -1.08037
H     2.21691  -0.24147  -1.67903
H     2.75194  -1.36962  -0.41489
H     3.44991   0.26282  -0.50598
H     1.60400  -0.07173   1.36357
H     0.21788  -2.00245  -0.71620
H    -1.22718  -1.34827  -2.52299
H     0.07378  -0.12117  -2.49862
H    -1.64092   0.39430  -2.53933
H    -2.62292   0.35330   1.29547
H    -1.85962   1.95253   1.48309
H    -0.97106   0.49060   1.95265
H     0.56067   2.01308   1.02205
H     0.29830   3.08113  -1.23000
H     1.16567   1.74642  -2.01912
H     2.04070   2.85970  -0.95127
26

C     2.50929  -0.31068  -0.62207
C     1.35178   0.10595   0.28766
C    -0.04978  -1.13702  -0.03812
C    -0.38435  -1.72413   1.26023
N    -0.48405  -2.21560   2.31013
N    -1.05820  -0.35699  -0.68960
C    -0.94559  -0.35764  -2.14420
N    -1.08400   0.94180  -0.15184
C    -1.66756   0.91840   1.20620
C     0.66353   1.41631   0.08187
C     1.07374   2.31183  -1.08151
H     2.21598  -0.24137  -1.67876
H     2.74955  -1.37037  -0.41470
H     3.45205   0.25973  -0.50815
H     1.60262  -0.07268   1.36371
H     0.21336  -2.00497  -0.71783
H    -1.22791  -1.34815  -2.52235
H     0.07409  -0.12204  -2.49852
H    -1.64034   0.39501  -2.53914
H    -2.62263   0.35247   1.29937
H    -1.85946   1.95207   1.48228
H    -0.96887   0.49085   1.95087
H     0.55805   2.01287   1.02147
H     0.29691   3.07978  -1.22984
H     1.16588   1.74606  -2.01891
H     2.04013   2.86272  -0.95452
26

C     2.51014  -0.31160  -0.62232
C     1.36796   0.12258   0.29232
C    -0.06948  -1.15092  -0.04149
C    -0.38685  -1.72449   1.26010
N    -0.48245  -2.21508   2.31130
N    -1.05236  -0.35348  -0.68923
C    -0.94520  -0.35713  -2.14534
N    -1.10630   0.93238  -0.15584
C    -1.66803   0.91594   1.20674
C     0.68566   1.42266   0.08664
C     1.07538   2.31385  -1.08265
H     2.21505  -0.24127  -1.67850
H     2.74715  -1.37111  -0.41450
H     3.45419   0.25664  -0.51032
H     1.60123  -0.07364   1.36385
H     0.20883  -2.00750  -0.71947
H    -1.22863  -1.34803  -2.52170
H     0.07439  -0.12290  -2.49842
H    -1.63976   0.39573  -2.53896
H    -2.62233   0.35164   1.30328
H    -1.85929   1.95161   1.48146
H    -0.96667   0.49111   1.94909
H     0.55542   2.01265   1.02089
H     0.29552   3.07843  -1.22967
H     1.16609   1.74569  -2.01869
H     2.03955   2.86573  -0.95777
26

C     2.51099  -0.31252  -0.62257
C     1.38415   0.13921   0.29698
C    -0.08917  -1.16482  -0.04487
C    -0.38935  -1.72484   1.25996
N    -0.48085  -2.21455   2.31247
N    -1.04651  -0.34997  -0.68886
C    -0.94481  -0.35663  -2.14648
N    -1.12859   0.92296  -0.15983
C    -1.66850   0.91349   1.20728
C     0.70780   1.42902   0.09142
C     1.07702   2.31588  -1.08378
H     2.21412  -0.24117  -1.67824
H     2.74475  -1.37186  -0.41431
H     3.45634   0.25355  -0.51249
H     1.59985  -0.07459   1.36399
H     0.20431  -2.01002  -0.72111
H    -1.22936  -1.34790  -2.52106
H     0.07470  -0.12376  -2.49832
H    -1.63918   0.39645  -2.53878
H    -2.62203   0.35082   1.30718
H    -1.85913   1.95115   1.48064
H    -0.96447   0.49136   1.94732
H     0.55279   2.01244   1.02031
H     0.29412   3.07708  -1.22950
H     1.16631   1.74532  -2.01848
H     2.03898   2.86875  -0.96102
26

C     2.51183  -0.31343  -0.62281
C     1.40033   0.15584   0.30165
C    -0.10886  -1.17871  -0.04824
C    -0.39185  -1.72519   1.25982
N    -0.47925  -2.21403   2.31364
N    -1.04066  -0.34646  -0.68850
C    -0.94441  -0.35612  -2.14762
N    -1.15089   0.91354  -0.16383
C    -1.66896   0.91104   1.20782
C     0.72993   1.43537   0.09620
C     1.07867   2.31790  -1.08492
H     2.21319  -0.24107  -1.67797
H     2.74236  -1.37261  -0.41411
H     3.45848   0.25045  -0.51466
H     1.59847  -0.07554   1.36413
H     0.19979  -2.01255  -0.72275
H    -1.23008  -1.34778  -2.52042
H     0.07501  -0.12463  -2.49822
H    -1.63859   0.39717  -2.53859
H    -2.62173   0.34999   1.31108
H    -1.85896   1.95069   1.47983
H    -0.96227   0.49162   1.94554
H     0.55016   2.01223   1.01973
H     0.29273   3.07573  -1.22934
H     1.16652   1.74495  -2.01827
H     2.03841   2.87177  -0.96427
26

C     2.51268  -0.31435  -0.62306
C     1.41652   0.17247   0.30631
C    -0.12855  -1.19261  -0.05161
C    -0.39435  -1.72554   1.25968
N    -0.47765  -2.21350   2.31481
N    -1.03482  -0.34295  -0.68813
C    -0.94402  -0.35561  -2.14877
N    -1.17318   0.90412  -0.16782
C    -1.66943   0.90859   1.20835
C     0.75207   1.44172   0.10098
C     1.08031   2.31993  -1.08605
H     2.21227  -0.24097  -1.67771
H     2.73996  -1.37335  -0.41391
H     3.46062   0.24736  -0.51683
H     1.59709  -0.07649   1.36427
H     0.19526  -2.01507  -0.72439
H    -1.23081  -1.34765  -2.51978
H     0.07531  -0.12549  -2.49812
H    -1.63801   0.39788  -2.53841
H    -2.62144   0.34916   1.31498
H    -1.85880   1.95023   1.47901
H    -0.96008   0.49187   1.94376
H     0.54753   2.01202   1.01915
H     0.29134   3.07438  -1.22917
H     1.16674   1.74458  -2.01805
H     2.03784   2.87478  -0.96751
26

C     2.51352  -0.31527  -0.62331
C     1.43271   0.18910   0.31097
C    -0.14824  -1.20651  -0.05499
C    -0.39685  -1.72589   1.25954
N    -0.47606  -2.21298   2.31598
N    -1.02897  -0.33944  -0.68776
C    -0.94363  -0.35510  -2.14991
N    -1.19548   0.89470  -0.17182
C    -1.66990   0.90613   1.20889
C     0.77420   1.44808   0.10576
C     1.08195   2.32195  -1.08719
H     2.21134  -0.24087  -1.67745
H     2.73756  -1.37410  -0.41372
H     3.46277   0.24427  -0.51900
H     1.59571  -0.07744   1.36441
H     0.19074  -2.01760  -0.72602
H    -1.23153  -1.34753  -2.51914
H     0.07562  -0.12635  -2.49803
H    -1.63743   0.39860  -2.53822
H    -2.62114   0.34833   1.31889
H    -1.85864   1.94977   1.47819
H    -0.95788   0.49213   1.94198
H     0.54490   2.01180   1.01857
H     0.28994   3.07303  -1.22900
H     1.16695   1.74421  -2.01784
H     2.03726   2.87780  -0.97076
26

C     2.51437  -0.31618  -0.62356
C     1.44889   0.20573   0.31563
C    -0.16794  -1.22041  -0.05836
C    -0.39934  -1.72624   1.25940
N    -0.47446  -2.21245   2.31714
N    -1.02312  -0.33594  -0.68740
C    -0.94324  -0.35459  -2.15105
N    -1.21777   0.88529  -0.17582
C    -1.67037   0.90368   1.20943
C     0.79633   1.45443   0.11053
C     1.08359   2.32397  -1.08833
H     2.21041  -0.24077  -1.67719
H     2.73517  -1.37484  -0.41352
H     3.46491   0.24118  -0.52117
H     1.59433  -0.07839   1.36455
H     0.18622  -2.02013  -0.72766
H    -1.23226  -1.34740  -2.51849
H     0.07593  -0.12721  -2.49793
H    -1.63685   0.39932  -2.53804
H    -2.62084   0.34750   1.32279
H    -1.85847   1.94931   1.47738
H    -0.95568   0.49238   1.94020
H     0.54227   2.01159   1.01799
H     0.28855   3.07168  -1.22884
H     1.16717   1.74384  -2.01763
H     2.03669   2.88081  -0.97401
26

C     2.51521  -0.31710  -0.62381
C     1.46508   0.22235   0.32029
C    -0.18763  -1.23431  -0.06173
C    -0.40184  -1.72659   1.25926
N    -0.47286  -2.21193   2.31831
N    -1.01728  -0.33243  -0.68703
C    -0.94285  -0.35408  -2.15219
N    -1.24007   0.87587  -0.17981
C    -1.67083   0.90123   1.20997
C     0.81847   1.46078   0.11531
C     1.08523   2.32600  -1.08946
H     2.20948  -0.24067  -1.67692
H     2.73277  -1.37559  -0.41333
H     3.46705   0.23809  -0.52334
H     1.59295  -0.07934   1.36469
H     0.18169  -2.02265  -0.72930
H    -1.23298  -1.34728  -2.51785
H     0.07623  -0.12808  -2.49783
H    -1.63627   0.40004  -2.53785
H    -2.62054   0.34668   1.32669
H    -1.85831   1.94885   1.47656
H    -0.95348   0.49264   1.93842
H     0.53964   2.01138   1.01741
H     0.28716   3.07033  -1.22867
H     1.16738   1.74348  -2.01741
H     2.03612   2.88383  -0.97726
26

C     2.51606  -0.31802  -0.62406
C     1.48126   0.23898   0.32496
C    -0.20732  -1.24821  -0.06510
C    -0.40434  -1.72695   1.25912
N    -0.47126  -2.21140   2.31948
N    -1.01143  -0.32892  -0.68666
C    -0.94245  -0.35357  -2.15334
N    -1.26236   0.86645  -0.18381
C    -1.67130   0.89878   1.21051
C     0.84060   1.46714   0.12009
C     1.08687   2.32802  -1.09060
H     2.20855  -0.24057  -1.67666
H     2.73037  -1.37633  -0.41313
H     3.46920   0.23500  -0.52551
H     1.59156  -0.08029   1.36483
H     0.17717  -2.02518  -0.73094
H    -1.23371  -1.34715  -2.51721
H     0.07654  -0.12894  -2.49773
H    -1.63569   0.40075  -2.53767
H    -2.62025   0.34585   1.33059
H    -1.85814   1.94839   1.47574
H    -0.95129   0.49289   1.93664
H     0.53701   2.01117   1.01683
H     0.28577   3.06898  -1.22850
H     1.16760   1.74311  -2.01720
H     2.03555   2.88684  -0.98051
26

C     2.51691  -0.31894  -0.62431
C     1.49745   0.25561   0.32962
C    -0.22701  -1.26210  -0.06848
C    -0.40684  -1.72730   1.25898
N    -0.46966  -2.21088   2.32065
N    -1.00558  -0.32541  -0.68629
C    -0.94206  -0.35306  -2.15448
N    -1.28466   0.85703  -0.18780
C    -1.67177   0.89632   1.21104
C     0.86274   1.47349   0.12487
C     1.08851   2.33005  -1.09173
H     2.20763  -0.24047  -1.67640
H     2.72798  -1.37708  -0.41294
H     3.47134   0.23191  -0.52768
H     1.59018  -0.08124   1.36497
H     0.17265  -2.02770  -0.73257
H    -1.23443  -1.34703  -2.51657
H     0.07685  -0.12980  -2.49763
H    -1.63511   0.40147  -2.53748
H    -2.61995   0.34502   1.33450
H    -1.85798   1.94793   1.47493
H    -0.94909   0.49315   1.93486
H     0.53438   2.01096   1.01625
H     0.28437   3.06763  -1.22834
H     1.16781   1.74274  -2.01699
H     2.03498   2.88986  -0.98376
26

C     2.51775  -0.31985  -0.62456
C     1.51363   0.27224   0.33428
C    -0.24671  -1.27600  -0.07185
C    -0.40934  -1.72765   1.25884
N    -0.46806  -2.21035   2.32182
N    -0.99973  -0.32190  -0.68593
C    -0.94167  -0.35255  -2.15562
N    -1.30695   0.84761  -0.19180
C    -1.67223   0.89387   1.21158
C     0.88487   1.47985   0.12965
C     1.09015   2.33207  -1.09287
H     2.20670  -0.24037  -1.67613
H     2.72558  -1.37783  -0.41274
H     3.47348   0.22882  -0.52985
H     1.58880  -0.08219   1.36511
H     0.16813  -2.03023  -0.73421
H    -1.23516  -1.34690  -2.51592
H     0.07715  -0.13067  -2.49753
H    -1.63452   0.40219  -2.53730
H    -2.61965   0.34419   1.33840
H    -1.85781   1.94746   1.47411
H    -0.94689   0.49340   1.93308
H     0.53176   2.01074   1.01567
H     0.28298   3.06629  -1.22817
H     1.16802   1.74237  -2.01678
H     2.03440   2.89287  -0.98701
26

C     2.51860  -0.32077  -0.62481
C     1.52982   0.28887   0.33894
C    -0.26640  -1.28990  -0.07522
C    -0.41184  -1.72800   1.25871
N    -0.46646  -2.20983   2.32299
N    -0.99389  -0.31840  -0.68556
C    -0.94128  -0.35205  -2.15676
N    -1.32925   0.83819  -0.19579
C    -1.67270   0.89142   1.21212
C     0.90701   1.48620   0.13443
C     1.09179   2.33410  -1.09401
H     2.20577  -0.24027  -1.67587
H     2.72318  -1.37857  -0.41255
H     3.47563   0.22573  -0.53202
H     1.58742  -0.08314   1.36525
H     0.16360  -2.03275  -0.73585
H    -1.23588  -1.34678  -2.51528
H     0.07746  -0.13153  -2.49744
H    -1.63394   0.40291  -2.53711
H    -2.61935   0.34336   1.34230
H    -1.85765   1.94700   1.47329
H    -0.94470   0.49366   1.93130
H     0.52913   2.01053   1.01509
H     0.28159   3.06494  -1.22800
H     1.16824   1.74200  -2.01656
H     2.03383   2.89589  -0.99026
26

C     2.51944  -0.32169  -0.62505
C     1.54601   0.30550   0.34360
C    -0.28609  -1.30380  -0.07860
C    -0.41434  -1.72835   1.25857
N    -0.46486  -2.20930   2.32416
N    -0.98804  -0.31489  -0.68519
C    -0.94088  -0.35154  -2.15791
N    -1.35154   0.82877  -0.19979
C    -1.67317   0.88897   1.21266
C     0.92914   1.49255   0.13920
C     1.09343   2.33612  -1.09514
H     2.20484  -0.24017  -1.67561
H     2.72079  -1.37932  -0.41235
H     3.47777   0.22263  -0.53419
H     1.58604  -0.08409   1.36539
H     0.15908  -2.03528  -0.73749
H    -1.23661  -1.34665  -2.51464
H     0.07777  -0.13239  -2.49734
H    -1.63336   0.40362  -2.53693
H    -2.61906   0.34254   1.34620
H    -1.85748   1.94654   1.47247
H    -0.94250   0.49391   1.92952
H     0.52650   2.01032   1.01451
H     0.28020   3.06359  -1.22784
H     1.16845   1.74163  -2.01635
H     2.03326   2.89890  -0.99351
26

C     2.52029  -0.32260  -0.62530
C     1.56219   0.32213   0.34827
C    -0.30578  -1.31770  -0.08197
C    -0.41684  -1.72870   1.25843
N    -0.46326  -2.20878   2.32533
N    -0.98219  -0.31138  -0.68482
C    -0.94049  -0.35103  -2.15905
N    -1.37384   0.81936  -0.20378
C    -1.67363   0.88651   1.21320
C     0.95127   1.49891   0.14398
C     1.09507   2.33814  -1.09628
H     2.20391  -0.24007  -1.67535
H     2.71839  -1.38006  -0.41216
H     3.47991   0.21954  -0.53636
H     1.58466  -0.08504   1.36553
H     0.15456  -2.03780  -0.73912
H    -1.23733  -1.34653  -2.51400
H     0.07807  -0.13326  -2.49724
H    -1.63278   0.40434  -2.53674
H    -2.61876   0.34171   1.35010
H    -1.85732   1.94608   1.47166
H    -0.94030   0.49417   1.92774
H     0.52387   2.01011   1.01393
H     0.27880   3.06224  -1.22767
H     1.16867   1.74127  -2.01614
H     2.03269   2.90192  -0.99676
26

C     2.52113  -0.32352  -0.62555
C     1.57838   0.33876   0.35293
C    -0.32548  -1.33159  -0.08534
C    -0.41934  -1.72906   1.25829
N    -0.46166  -2.20825   2.32650
N    -0.97635  -0.30787  -0.68446
C    -0.94010  -0.35052  -2.16019
N    -1.39613   0.80994  -0.20778
C    -1.67410   0.88406   1.21373
C     0.97341   1.50526   0.14876
C     1.09671   2.34017  -1.09741
H     2.20299  -0.23997  -1.67508
H     2.71599  -1.38081  -0.41196
H     3.48206   0.21645  -0.53853
H     1.58328  -0.08599   1.36566
H     0.15003  -2.04033  -0.74076
H    -1.23806  -1.34640  -2.51336
H     0.07838  -0.13412  -2.49714
H    -1.63220   0.40506  -2.53656
H    -2.61846   0.34088   1.35401
H    -1.85715   1.94562   1.47084
H    -0.93810   0.49442   1.92596
H     0.52124   2.00989   1.01335
H     0.27741   3.06089  -1.22750
H     1.16888   1.74090  -2.01592
H     2.03211   2.90493  -1.00001
26

C     2.52198  -0.32444  -0.62580
C     1.59456   0.35539   0.35759
C    -0.34517  -1.34549  -0.08871
C    -0.42183  -1.72941   1.25815
N    -0.46007  -2.20773   2.32767
N    -0.97050  -0.30436  -0.68409
C    -0.93971  -0.35001  -2.16134
N    -1.41843   0.80052  -0.21178
C    -1.67457   0.88161   1.21427
C     0.99554   1.51162   0.15354
C     1.09835   2.34219  -1.09855
H     2.20206  -0.23987  -1.67482
H     2.71359  -1.38155  -0.41177
H     3.48420   0.21336  -0.54069
H     1.58190  -0.08694   1.36580
H     0.14551  -2.04285  -0.74240
H    -1.23878  -1.34628  -2.51271
H     0.07869  -0.13498  -2.49704
H    -1.63162   0.40578  -2.53638
H    -2.61816   0.34005   1.35791
H    -1.85699   1.94516   1.47002
H    -0.93591   0.49468   1.92418
H     0.51861   2.00968   1.01278
H     0.27602   3.05954  -1.22734
H     1.16910   1.74053  -2.01571
H     2.03154   2.90795  -1.00326
26

C     2.52283  -0.32536  -0.62605
C     1.61075   0.37201   0.36225
C    -0.36486  -1.35939  -0.09209
C    -0.42433  -1.72976   1.25801
N    -0.45847  -2.20720   2.32883
N    -0.96465  -0.30086  -0.68372
C    -0.93932  -0.34950  -2.16248
N    -1.44072   0.79110  -0.21577
C    -1.67504   0.87915   1.21481
C     1.01768   1.51797   0.15832
C     1.09999   2.34422  -1.09969
H     2.20113  -0.23976  -1.67456
H     2.71120  -1.38230  -0.41157
H     3.48634   0.21027  -0.54286
H     1.58051  -0.08789   1.36594
H     0.14099  -2.04538  -0.74404
H    -1.23951  -1.34615  -2.51207
H     0.07899  -0.13584  -2.49694
H    -1.63104   0.40649  -2.53619
H    -2.61787   0.33922   1.36181
H    -1.85682   1.94470   1.46921
H    -0.93371   0.49493   1.92240
H     0.51598   2.00947   1.01220
H     0.27462   3.05819  -1.22717
H     1.16931   1.74016  -2.01550
H     2.03097   2.91096  -1.00651
26

C     2.52367  -0.32627  -0.62630
C     1.62693   0.38864   0.36691
C    -0.38455  -1.37329  -0.09546
C    -0.42683  -1.73011   1.25787
N    -0.45687  -2.20667   2.33000
N    -0.95881  -0.29735  -0.68335
C    -0.93892  -0.34899  -2.16362
N    -1.46302   0.78168  -0.21977
C    -1.67550   0.87670   1.21535
C     1.03981   1.52432   0.16309
C     1.10163   2.34624  -1.10082
H     2.20020  -0.23966  -1.67429
H     2.70880  -1.38305  -0.41138
H     3.48849   0.20718  -0.54503
H     1.57913  -0.08884   1.36608
H     0.13646  -2.04790  -0.74568
H    -1.24023  -1.34603  -2.51143
H     0.07930  -0.13671  -2.49685
H    -1.63046   0.40721  -2.53601
H    -2.61757   0.33839   1.36571
H    -1.85666   1.94424   1.46839
H    -0.93151   0.49519   1.92062
H     0.51335   2.00926   1.01162
H     0.27323   3.05684  -1.22700
H     1.16953   1.73979  -2.01528
H     2.03040   2.91398  -1.00976
26

C     2.52452  -0.32719  -0.62655
C     1.64312   0.40527   0.37157
C    -0.40425  -1.38719  -0.09883
C    -0.42933  -1.73046   1.25773
N    -0.45527  -2.20615   2.33117
N    -0.95296  -0.29384  -0.68299
C    -0.93853  -0.34848  -2.16476
N    -1.48532   0.77226  -0.22376
C    -1.67597   0.87425   1.21588
C     1.06194   1.53068   0.16787
C     1.10327   2.34827  -1.10196
H     2.19927  -0.23956  -1.67403
H     2.70640  -1.38379  -0.41118
H     3.49063   0.20409  -0.54720
H     1.57775  -0.08979   1.36622
H     0.13194  -2.05043  -0.74731
H    -1.24096  -1.34591  -2.51079
H     0.07960  -0.13757  -2.49675
H    -1.62987   0.40793  -2.53582
H    -2.61727   0.33757   1.36962
H    -1.85649   1.94378   1.46757
H    -0.92931   0.49544   1.91885
H     0.51072   2.00904   1.01104
H     0.27184   3.05549  -1.22684
H     1.16974   1.73942  -2.01507
H     2.02982   2.91699  -1.01301
26

C     2.52367  -0.32627  -0.62630
C     1.62693   0.38864   0.36691
C    -0.38455  -1.37329  -0.09546
C    -0.42683  -1.73011   1.25787
N    -0.45687  -2.20667   2.33000
N    -0.95881  -0.29735  -0.68335
C    -0.93892  -0.34899  -2.16362
N    -1.46302   0.78168  -0.21977
C    -1.67550   0.87670   1.21535
C     1.03981   1.52432   0.16309
C     1.10163   2.34624  -1.10082
H     2.20020  -0.23966  -1.67429
H     2.70880  -1.38305  -0.41138
H     3.48849   0.20718  -0.54503
H     1.57913  -0.08884   1.36608
H     0.13646  -2.04790  -0.74568
H    -1.24023  -1.34603  -2.51143
H     0.07930  -0.13671  -2.49685
H    -1.63046   0.40721  -2.53601
H    -2.61757   0.33839   1.36571
H    -1.85666   1.94424   1.46839
H    -0.93151   0.49519   1.92062
H     0.51335   2.00926   1.01162
H     0.27323   3.05684  -1.22700
H     1.16953   1.73979  -2.01528
H     2.03040   2.91398  -1.00976
26

C     2.52283  -0.32536  -0.62605
C     1.61075   0.37201   0.36225
C    -0.36486  -1.35939  -0.09209
C    -0.42433  -1.72976   1.25801
N    -0.45847  -2.20720   2.32883
N    -0.96465  -0.30086  -0.68372
C    -0.93932  -0.34950  -2.16248
N    -1.44072   0.79110  -0.21577
C    -1.67504   0.87915   1.21481
C     1.01768   1.51797   0.15832
C     1.09999   2.34422  -1.09969
H     2.20113  -0.23976  -1.67456
H     2.71120  -1.38230  -0.41157
H     3.48634   0.21027  -0.54286
H     1.58051  -0.08789   1.36594
H     0.14099  -2.04538  -0.74404
H    -1.23951  -1.34615  -2.51207
H     0.07899  -0.13584  -2.49694
H    -1.63104   0.40649  -2.53619
H    -2.61787   0.33922   1.36181
H    -1.85682   1.94470   1.46921
H    -0.93371   0.49493   1.92240
H     0.51598   2.00947   1.01220
H     0.27462   3.05819  -1.22717
H     1.16931   1.74016  -2.01550
H     2.03097   2.91096  -1.00651
26

C     2.52198  -0.32444  -0.62580
C     1.59456   0.35539   0.35759
C    -0.34517  -1.34549  -0.08871
C    -0.42183  -1.72941   1.25815
N    -0.46007  -2.20773   2.32767
N    -0.97050  -0.30436  -0.68409
C    -0.93971  -0.35001  -2.16134
N    -1.41843   0.80052  -0.21178
C    -1.67457   0.88161   1.21427
C     0.99554   1.51162   0.15354
C     1.09835   2.34219  -1.09855
H     2.20206  -0.23987  -1.67482
H     2.71359  -1.38155  -0.41177
H     3.48420   0.21336  -0.54069
H     1.58190  -0.08694   1.36580
H     0.14551  -2.04285  -0.74240
H    -1.23878  -1.34628  -2.51271
H     0.07869  -0.13498  -2.49704
H    -1.63162   0.40578  -2.53638
H    -2.61816   0.34005   1.35791
H    -1.85699   1.94516   1.47002
H    -0.93591   0.49468   1.92418
H     0.51861   2.00968   1.01278
H     0.27602   3.05954  -1.22734
H     1.16910   1.74053  -2.01571
H     2.03154   2.90795  -1.00326
26

C     2.52113  -0.32352  -0.62555
C     1.57838   0.33876   0.35293
C    -0.32548  -1.33159  -0.08534
C    -0.41934  -1.72906   1.25829
N    -0.46166  -2.20825   2.32650
N    -0.97635  -0.30787  -0.68446
C    -0.94010  -0.35052  -2.16019
N    -1.39613   0.80994  -0.20778
C    -1.67410   0.88406   1.21373
C     0.97341   1.50526   0.14876
C     1.09671   2.34017  -1.09741
H     2.20299  -0.23997  -1.67508
H     2.71599  -1.38081  -0.41196
H     3.48206   0.21645  -0.53853
H     1.58328  -0.08599   1.36566
H     0.15003  -2.04033  -0.74076
H    -1.23806  -1.34640  -2.51336
H     0.07838  -0.13412  -2.49714
H    -1.63220   0.40506  -2.53656
H    -2.61846   0.34088   1.35401
H    -1.85715   1.94562   1.47084
H    -0.93810   0.49442   1.92596
H     0.52124   2.00989   1.01335
H     0.27741   3.06089  -1.22750
H     1.16888   1.74090  -2.01592
H     2.03211   2.90493  -1.00001
26

C     2.52029  -0.32260  -0.62530
C     1.56219   0.32213   0.34827
C    -0.30578  -1.31770  -0.08197
C    -0.41684  -1.72870   1.25843
N    -0.46326  -2.20878   2.32533
N    -0.98219  -0.31138  -0.68482
C    -0.94049  -0.35103  -2.15905
N    -1.37384   0.81936  -0.20378
C    -1.67363   0.88651   1.21320
C     0.95127   1.49891   0.14398
C     1.09507   2.33814  -1.09628
H     2.20391  -0.24007  -1.67535
H     2.71839  -1.38006  -0.41216
H     3.47991   0.21954  -0.53636
H     1.58466  -0.08504   1.36553
H     0.15456  -2.03780  -0.73912
H    -1.23733  -1.34653  -2.51400
H     0.07807  -0.13326  -2.49724
H    -1.63278   0.40434  -2.53674
H    -2.61876   0.34171   1.35010
H    -1.85732   1.94608   1.47166
H    -0.94030   0.49417   1.92774
H     0.52387   2.01011   1.01393
H     0.27880   3.06224  -1.22767
H     1.16867   1.74127  -2.01614
H     2.03269   2.90192  -0.99676
26

C     2.51944  -0.32169  -0.62505
C     1.54601   0.30550   0.34360
C    -0.28609  -1.30380  -0.07860
C    -0.41434  -1.72835   1.25857
N    -0.46486  -2.20930   2.32416
N    -0.98804  -0.31489  -0.68519
C    -0.94088  -0.35154  -2.15791
N    -1.35154   0.82877  -0.19979
C    -1.67317   0.88897   1.21266
C     0.92914   1.49255   0.13920
C     1.09343   2.33612  -1.09514
H     2.20484  -0.24017  -1.67561
H     2.72079  -1.37932  -0.41235
H     3.47777   0.22263  -0.53419
H     1.58604  -0.08409   1.36539
H     0.15908  -2.03528  -0.73749
H    -1.23661  -1.34665  -2.51464
H     0.07777  -0.13239  -2.49734
H    -1.63336   0.40362  -2.53693
H    -2.61906   0.34254   1.34620
H    -1.85748   1.94654   1.47247
H    -0.94250   0.49391   1.92952
H     0.52650   2.01032   1.01451
H     0.28020   3.06359  -1.22784
H     1.16845   1.74163  -2.01635
H     2.03326   2.89890  -0.99351
26

C     2.51860  -0.32077  -0.62481
C     1.52982   0.28887   0.33894
C    -0.26640  -1.28990  -0.07522
C    -0.41184  -1.72800   1.25871
N    -0.46646  -2.20983   2.32299
N    -0.99389  -0.31840  -0.68556
C    -0.94128  -0.35205  -2.15676
N    -1.32925   0.83819  -0.19579
C    -1.67270   0.89142   1.21212
C     0.90701   1.48620   0.13443
C     1.09179   2.33410  -1.09401
H     2.20577  -0.24027  -1.67587
H     2.72318  -1.37857  -0.41255
H     3.47563   0.22573  -0.53202
H     1.58742  -0.08314   1.36525
H     0.16360  -2.03275  -0.73585
H    -1.23588  -1.34678  -2.51528
H     0.07746  -0.13153  -2.49744
H    -1.63394   0.40291  -2.53711
H    -2.61935   0.34336   1.34230
H    -1.85765   1.94700   1.47329
H    -0.94470   0.49366   1.93130
H     0.52913   2.01053   1.01509
H     0.28159   3.06494  -1.22800
H     1.16824   1.74200  -2.01656
H     2.03383   2.89589  -0.99026
26

C     2.51775  -0.31985  -0.62456
C     1.51363   0.27224   0.33428
C    -0.24671  -1.27600  -0.07185
C    -0.40934  -1.72765   1.25884
N    -0.46806  -2.21035   2.32182
N    -0.99973  -0.32190  -0.68593
C    -0.94167  -0.35255  -2.15562
N    -1.30695   0.84761  -0.19180
C    -1.67223   0.89387   1.21158
C     0.88487   1.47985   0.12965
C     1.09015   2.33207  -1.09287
H     2.20670  -0.24037  -1.67613
H     2.72558  -1.37783  -0.41274
H     3.47348   0.22882  -0.52985
H     1.58880  -0.08219   1.36511
H     0.16813  -2.03023  -0.73421
H    -1.23516  -1.34690  -2.51592
H     0.07715  -0.13067  -2.49753
H    -1.63452   0.40219  -2.53730
H    -2.61965   0.34419   1.33840
H    -1.85781   1.94746   1.47411
H    -0.94689   0.49340   1.93308
H     0.53176   2.01074   1.01567
H     0.28298   3.06629  -1.22817
H     1.16802   1.74237  -2.01678
H     2.03440   2.89287  -0.98701
26

C     2.51691  -0.31894  -0.62431
C     1.49745   0.25561   0.32962
C    -0.22701  -1.26210  -0.06848
C    -0.40684  -1.72730   1.25898
N    -0.46966  -2.21088   2.32065
N    -1.00558  -0.32541  -0.68629
C    -0.94206  -0.35306  -2.15448
N    -1.28466   0.85703  -0.18780
C    -1.67177   0.89632   1.21104
C     0.86274   1.47349   0.12487
C     1.08851   2.33005  -1.09173
H     2.20763  -0.24047  -1.67640
H     2.72798  -1.37708  -0.41294
H     3.47134   0.23191  -0.52768
H     1.59018  -0.08124   1.36497
H     0.17265  -2.02770  -0.73257
H    -1.23443  -1.34703  -2.51657
H     0.07685  -0.12980  -2.49763
H    -1.63511   0.40147  -2.53748
H    -2.61995   0.34502   1.33450
H    -1.85798   1.94793   1.47493
H    -0.94909   0.49315   1.93486
H     0.53438   2.01096   1.01625
H     0.28437   3.06763  -1.22834
H     1.16781   1.74274  -2.01699
H     2.03498   2.88986  -0.98376
26

C     2.51606  -0.31802  -0.62406
C     1.48126   0.23898   0.32496
C    -0.20732  -1.24821  -0.06510
C    -0.40434  -1.72695   1.25912
N    -0.47126  -2.21140   2.31948
N    -1.01143  -0.32892  -0.68666
C    -0.94245  -0.35357  -2.15334
N    -1.26236   0.86645  -0.18381
C    -1.67130   0.89878   1.21051
C     0.84060   1.46714   0.12009
C     1.08687   2.32802  -1.09060
H     2.20855  -0.24057  -1.67666
H     2.73037  -1.37633  -0.41313
H     3.46920   0.23500  -0.52551
H     1.59156  -0.08029   1.36483
H     0.17717  -2.02518  -0.73094
H    -1.23371  -1.34715  -2.51721
H     0.07654  -0.12894  -2.49773
H    -1.63569   0.40075  -2.53767
H    -2.62025   0.34585   1.33059
H    -1.85814   1.94839   1.47574
H    -0.95129   0.49289   1.93664
H     0.53701   2.01117   1.01683
H     0.28577   3.06898  -1.22850
H     1.16760   1.74311  -2.01720
H     2.03555   2.88684  -0.98051
26

C     2.51521  -0.31710  -0.62381
C     1.46508   0.22235   0.32029
C    -0.18763  -1.23431  -0.06173
C    -0.40184  -1.72659   1.25926
N    -0.47286  -2.21193   2.31831
N    -1.01728  -0.33243  -0.68703
C    -0.94285  -0.35408  -2.15219
N    -1.24007   0.87587  -0.17981
C    -1.67083   0.90123   1.20997
C     0.81847   1.46078   0.11531
C     1.08523   2.32600  -1.08946
H     2.20948  -0.24067  -1.67692
H     2.73277  -1.37559  -0.41333
H     3.46705   0.23809  -0.52334
H     1.59295  -0.07934   1.36469
H     0.18169  -2.02265  -0.72930
H    -1.23298  -1.34728  -2.51785
H     0.07623  -0.12808  -2.49783
H    -1.63627   0.40004  -2.53785
H    -2.62054   0.34668   1.32669
H    -1.85831   1.94885   1.47656
H    -0.95348   0.49264   1.93842
H     0.53964   2.01138   1.01741
H     0.28716   3.07033  -1.22867
H     1.16738   1.74348  -2.01741
H     2.03612   2.88383  -0.97726
26

C     2.51437  -0.31618  -0.62356
C     1.44889   0.20573   0.31563
C    -0.16794  -1.22041  -0.05836
C    -0.39934  -1.72624   1.25940
N    -0.47446  -2.21245   2.31714
N    -1.02312  -0.33594  -0.68740
C    -0.94324  -0.35459  -2.15105
N    -1.21777   0.88529  -0.17582
C    -1.67037   0.90368   1.20943
C     0.79633   1.45443   0.11053
C     1.08359   2.32397  -1.08833
H     2.21041  -0.24077  -1.67719
H     2.73517  -1.37484  -0.41352
H     3.46491   0.24118  -0.52117
H     1.59433  -0.07839   1.36455
H     0.18622  -2.02013  -0.72766
H    -1.23226  -1.34740  -2.51849
H     0.07593  -0.12721  -2.49793
H    -1.63685   0.39932  -2.53804
H    -2.62084   0.34750   1.32279
H    -1.85847   1.94931   1.47738
H    -0.95568   0.49238   1.94020
H     0.54227   2.01159   1.01799
H     0.28855   3.07168  -1.22884
H     1.16717   1.74384  -2.01763
H     2.03669   2.88081  -0.97401
26

C     2.51352  -0.31527  -0.62331
C     1.43271   0.18910   0.31097
C    -0.14824  -1.20651  -0.05499
C    -0.39685  -1.72589   1.25954
N    -0.47606  -2.21298   2.31598
N    -1.02897  -0.33944  -0.68776
C    -0.94363  -0.35510  -2.14991
N    -1.19548   0.89470  -0.17182
C    -1.66990   0.90613   1.20889
C     0.77420   1.44808   0.10576
C     1.08195   2.32195  -1.08719
H     2.21134  -0.24087  -1.67745
H     2.73756  -1.37410  -0.41372
H     3.46277   0.24427  -0.51900
H     1.59571  -0.07744   1.36441
H     0.19074  -2.01760  -0.72602
H    -1.23153  -1.34753  -2.51914
H     0.07562  -0.12635  -2.49803
H    -1.63743   0.39860  -2.53822
H    -2.62114   0.34833   1.31889
H    -1.85864   1.94977   1.47819
H    -0.95788   0.49213   1.94198
H     0.54490   2.01180   1.01857
H     0.28994   3.07303  -1.22900
H     1.16695   1.74421  -2.01784
H     2.03726   2.87780  -0.97076
26

C     2.51268  -0.31435  -0.62306
C     1.41652   0.17247   0.30631
C    -0.12855  -1.19261  -0.05161
C    -0.39435  -1.72554   1.25968
N    -0.47765  -2.21350   2.31481
N    -1.03482  -0.34295  -0.68813
C    -0.94402  -0.35561  -2.14877
N    -1.17318   0.90412  -0.16782
C    -1.66943   0.90859   1.20835
C     0.75207   1.44172   0.10098
C     1.08031   2.31993  -1.08605
H     2.21227  -0.24097  -1.67771
H     2.73996  -1.37335  -0.41391
H     3.46062   0.24736  -0.51683
H     1.59709  -0.07649   1.36427
H     0.19526  -2.01507  -0.72439
H    -1.23081  -1.34765  -2.51978
H     0.07531  -0.12549  -2.49812
H    -1.63801   0.39788  -2.53841
H    -2.62144   0.34916   1.31498
H    -1.85880   1.95023   1.47901
H    -0.96008   0.49187   1.94376
H     0.54753   2.01202   1.01915
H     0.29134   3.07438  -1.22917
H     1.16674   1.74458  -2.01805
H     2.03784   2.87478  -0.96751
26

C     2.51183  -0.31343  -0.62281
C     1.40033   0.15584   0.30165
C    -0.10886  -1.17871  -0.04824
C    -0.39185  -1.72519   1.25982
N    -0.47925  -2.21403   2.31364
N    -1.04066  -0.34646  -0.68850
C    -0.94441  -0.35612  -2.14762
N    -1.15089   0.91354  -0.16383
C    -1.66896   0.91104   1.20782
C     0.72993   1.43537   0.09620
C     1.07867   2.31790  -1.08492
H     2.21319  -0.24107  -1.67797
H     2.74236  -1.37261  -0.41411
H     3.45848   0.25045  -0.51466
H     1.59847  -0.07554   1.36413
H     0.19979  -2.01255  -0.72275
H    -1.23008  -1.34778  -2.52042
H     0.07501  -0.12463  -2.49822
H    -1.63859   0.39717  -2.53859
H    -2.62173   0.34999   1.31108
H    -1.85896   1.95069   1.47983
H    -0.96227   0.49162   1.94554
H     0.55016   2.01223   1.01973
H     0.29273   3.07573  -1.22934
H     1.16652   1.74495  -2.01827
H     2.03841   2.87177  -0.96427
26

C     2.51099  -0.31252  -0.62257
C     1.38415   0.13921   0.29698
C    -0.08917  -1.16482  -0.04487
C    -0.38935  -1.72484   1.25996
N    -0.48085  -2.21455   2.31247
N    -1.04651  -0.34997  -0.68886
C    -0.94481  -0.35663  -2.14648
N    -1.12859   0.92296  -0.15983
C    -1.66850   0.91349   1.20728
C     0.70780   1.42902   0.09142
C     1.07702   2.31588  -1.08378
H     2.21412  -0.24117  -1.67824
H     2.74475  -1.37186  -0.41431
H     3.45634   0.25355  -0.51249
H     1.59985  -0.07459   1.36399
H     0.20431  -2.01002  -0.72111
H    -1.22936  -1.34790  -2.52106
H     0.07470  -0.12376  -2.49832
H    -1.63918   0.39645  -2.53878
H    -2.62203   0.35082   1.30718
H    -1.85913   1.95115   1.48064
H    -0.96447   0.49136   1.94732
H     0.55279   2.01244   1.02031
H     0.29412   3.07708  -1.22950
H     1.16631   1.74532  -2.01848
H     2.03898   2.86875  -0.96102
26

C     2.51014  -0.31160  -0.62232
C     1.36796   0.12258   0.29232
C    -0.06948  -1.15092  -0.04149
C    -0.38685  -1.72449   1.26010
N    -0.48245  -2.21508   2.31130
N    -1.05236  -0.35348  -0.68923
C    -0.94520  -0.35713  -2.14534
N    -1.10630   0.93238  -0.15584
C    -1.66803   0.91594   1.20674
C     0.68566   1.42266   0.08664
C     1.07538   2.31385  -1.08265
H     2.21505  -0.24127  -1.67850
H     2.74715  -1.37111  -0.41450
H     3.45419   0.25664  -0.51032
H     1.60123  -0.07364   1.36385
H     0.20883  -2.00750  -0.71947
H    -1.22863  -1.34803  -2.52170
H     0.07439  -0.12290  -2.49842
H    -1.63976   0.39573  -2.53896
H    -2.62233   0.35164   1.30328
H    -1.85929   1.95161   1.48146
H    -0.96667   0.49111   1.94909
H     0.55542   2.01265   1.02089
H     0.29552   3.07843  -1.22967
H     1.16609   1.74569  -2.01869
H     2.03955   2.86573  -0.95777
26

C     2.50929  -0.31068  -0.62207
C     1.35178   0.10595   0.28766
C    -0.04978  -1.13702  -0.03812
C    -0.38435  -1.72413   1.26023
N    -0.48405  -2.21560   2.31013
N    -1.05820  -0.35699  -0.68960
C    -0.94559  -0.35764  -2.14420
N    -1.08400   0.94180  -0.15184
C    -1.66756   0.91840   1.20620
C     0.66353   1.41631   0.08187
C     1.07374   2.31183  -1.08151
H     2.21598  -0.24137  -1.67876
H     2.74955  -1.37037  -0.41470
H     3.45205   0.25973  -0.50815
H     1.60262  -0.07268   1.36371
H     0.21336  -2.00497  -0.71783
H    -1.22791  -1.34815  -2.52235
H     0.07409  -0.12204  -2.49852
H    -1.64034   0.39501  -2.53914
H    -2.62263   0.35247   1.29937
H    -1.85946   1.95207   1.48228
H    -0.96887   0.49085   1.95087
H     0.55805   2.01287   1.02147
H     0.29691   3.07978  -1.22984
H     1.16588   1.74606  -2.01891
H     2.04013   2.86272  -0.95452
26

C     2.50845  -0.30976  -0.62182
C     1.33559   0.08932   0.28300
C    -0.03009  -1.12312  -0.03475
C    -0.38185  -1.72378   1.26037
N    -0.48565  -2.21613   2.30896
N    -1.06405  -0.36049  -0.68997
C    -0.94598  -0.35815  -2.14305
N    -1.06171   0.95122  -0.14785
C    -1.66710   0.92085   1.20567
C     0.64140   1.40995   0.07709
C     1.07210   2.30980  -1.08037
H     2.21691  -0.24147  -1.67903
H     2.75194  -1.36962  -0.41489
H     3.44991   0.26282  -0.50598
H     1.60400  -0.07173   1.36357
H     0.21788  -2.00245  -0.71620
H    -1.22718  -1.34827  -2.52299
H     0.07378  -0.12117  -2.49862
H    -1.64092   0.39430  -2.53933
H    -2.62292   0.35330   1.29547
H    -1.85962   1.95253   1.48309
H    -0.97106   0.49060   1.95265
H     0.56067   2.01308   1.02205
H     0.29830   3.08113  -1.23000
H     1.16567   1.74642  -2.01912
H     2.04070   2.85970  -0.95127
