19

C 5.040153497 -0.763962850 1.130253812
C 3.019425680 0.261840981 -0.651786212
C 0.419196510 -0.197194206 0.459544487
O -0.179952893 1.040787299 2.443880204
C -1.780823702 0.771533981 -2.235350286
C -4.292099514 0.691180520 -1.435557493
O -4.598782562 -0.080076408 2.319123811
H 6.926631201 -0.466234023 0.352642850
H 4.927683064 0.177152376 2.959068999
H 4.798121702 -2.791668121 1.440768488
H 3.168675456 -0.641320720 -2.503656946
H 3.269641217 2.294809158 -0.908996571
H -0.109213150 -2.220707233 0.398200727
H -2.677248303 0.422059521 2.728946731
H -1.239031040 -0.653230643 -3.605731427
H -1.010536695 2.640212921 -2.568964710
H -5.482232719 -0.902393131 -1.913933705
H -5.303124137 2.402968521 -0.976691757
H -4.711146868 -1.882151838 2.484936091

