14

O 2.901998061 2.786287088 -1.743193208
C 2.280356892 0.285096196 0.578731763
C -0.386026620 0.436425937 0.359572854
O -1.599096980 1.568838119 2.467490177
C -1.845298229 -1.766416865 -0.673739331
O -2.199275471 -3.730458227 1.119685065
H 3.657343363 2.166861226 -3.285318744
H 3.282860003 -1.264451277 -0.310373664
H 3.218951430 1.162511551 2.169459618
H 0.717701447 2.188727209 -1.495873695
H -2.629391367 2.934765780 1.880185067
H -3.685578120 -1.111644073 -1.373761729
H -0.843793801 -2.606327619 -2.272542194
H -2.811241262 -2.942009308 2.636804441

