15

C 4.609526978 -1.609516061 0.327936836
C 2.238317005 -0.099448689 0.508428433
N 0.494871991 -0.323703377 -1.100744888
C -1.821270928 1.132762839 -0.894611862
C -4.087574097 -0.654537295 -0.784861558
C -1.899883251 2.923953901 1.246251381
N -1.926903349 4.290634107 2.929685213
H 4.832609166 -2.775559056 2.017685074
H 4.576896397 -2.812668307 -1.339708259
H 6.247145081 -0.354618427 0.243840281
H 2.090185418 1.209332444 2.110651285
H -1.959358923 2.269059316 -2.616227327
H -4.021177568 -1.912206987 -2.412512262
H -4.018114662 -1.789986474 0.933001459
H -5.855443878 0.402094715 -0.808839914

