13

C -3.457648709 0.641502965 0.202234408
N -0.797356937 0.184149635 -0.332989056
C 0.457426350 -2.000209321 0.393833929
C 2.957644940 -1.441453287 0.509834106
C 3.281195910 1.138345714 -0.163629836
C 1.023599068 2.386528962 -0.559582336
H -3.710484219 0.914280075 2.225852636
H -4.596635701 -0.951802042 -0.437557939
H -4.018294734 2.359993825 -0.777363786
H -0.549799791 -3.747541540 0.694756449
H 4.433574220 -2.776395165 0.968866004
H 5.091762957 2.067283166 -0.336063811
H -0.314963620 1.008533302 -2.333570087

