13

C -3.006028618 1.234339115 0.735938230
C -1.482303194 -1.125216067 -0.075029062
C 0.595450548 -0.021110301 -1.573506233
C 2.916834679 0.347572205 -0.022937666
O 3.899202153 -2.038672977 -0.854391177
H -4.654720383 0.631788583 1.812358129
H -1.888724985 2.488155202 1.934399250
H -3.649958559 2.305846803 -0.901253078
H -2.702569896 -2.337857384 -1.210663624
H -0.867797177 -2.154168635 1.619193499
H 4.124518280 -1.923466674 -2.659498332
H 4.131796920 1.929107639 -0.549765493
H 2.747236181 0.220052277 2.037294025

