13

C -3.048216092 1.174276059 0.576595975
C -1.293987772 -1.058338225 -0.004259707
C 0.944629965 -0.029790342 -1.383095275
C 3.214733127 0.392589563 0.176416554
O 3.592885712 -2.042661017 -0.962715588
H -4.741343879 0.510860170 1.545448317
H -2.122817417 2.562933630 1.790611898
H -3.631513150 2.130021129 -1.154265126
H -2.300162885 -2.421414497 -1.180173517
H -0.752428604 -2.005589466 1.758669914
H 2.622836682 -1.542594528 -2.755911422
H 4.599330300 1.805418393 -0.383619222
H 3.044876644 0.176125952 2.216114764

