13

C 3.832440926 2.366162496 -0.346879828
C 2.975613457 -0.269624649 -1.020708505
O 1.227484284 -1.089778071 0.841672243
C 0.459688276 -3.516417944 0.642079011
C -1.492083018 -4.428934300 1.913545461
H -1.980961063 -6.402234677 1.732542315
H -2.606629918 -3.242345352 3.151044462
H 1.586975918 -4.695186997 -0.612838692
H 4.586580487 -1.572870775 -1.082548168
H 2.063115848 -0.293315655 -2.880980867
H 5.164435568 3.060549503 -1.759486805
H 2.224033945 3.652111807 -0.273675920
H 4.761171075 2.378046378 1.492727434

