13

C -2.245415289 -1.834212736 -0.708375460
C -0.144614277 -0.380811335 0.549600614
O 0.232036353 -1.288294046 2.968291997
C -0.097277885 2.468661486 0.098987634
O 0.532570780 2.499334954 -2.280870217
C 2.312317565 0.307260662 -0.866165097
O 3.325128905 1.869593039 0.795821251
H -3.979642427 -1.655528246 0.391247555
H -1.735926909 -3.829848089 -0.762738326
H -2.579811246 -1.168859764 -2.624299916
H 1.710446522 -0.426126249 3.606518498
H -0.901189110 4.097871951 1.078880304
H 3.442524153 -0.767260554 -2.220865933

