18

C 3.303320540 1.989138985 -0.917360706
C 2.358486655 -0.183869350 0.719876163
C 0.412510262 -1.797050667 -0.608373799
C -1.477245248 -3.325673959 0.856966250
C -2.352094618 -1.307765708 -0.919847945
C -3.195585628 1.874983785 1.614739283
H 4.160499441 1.279298458 -2.655537523
H 1.759005435 3.243294032 -1.466279658
H 4.721489396 3.112622664 0.073510252
H 1.583361722 0.539795033 2.491227670
H 3.951958450 -1.391187819 1.249294653
H 1.158611364 -2.655234619 -2.325199318
H -1.486269143 -3.013427293 2.881440297
H -1.938371965 -5.252008689 0.327572742
H -3.586765267 0.585556962 -0.399800342
H -5.048331664 2.770384381 1.485699920
H -1.691564454 3.228848210 1.295339682
H -3.008169432 0.840776872 3.367717134

