12

O 4.589741281 0.500960008 0.041637451
C 2.250098522 -0.038705219 -1.130512724
C 0.202027804 -0.566800580 0.766262609
C -0.999113452 -2.768730266 0.912356050
H -0.484205980 -4.313660987 -0.319960434
H -2.487015130 -3.101087039 2.280123303
N -0.142600585 1.439750285 2.459354415
H -1.538833860 1.174896570 3.726407864
H -0.280988801 3.149541846 1.623666991
H 1.672476236 1.556978783 -2.335998536
H 2.516517931 -1.675777512 -2.350847342
H 4.227600025 1.262555296 1.650982605

