9

N -1.722586614 -0.958322731 -0.175583789
C -1.456245402 1.550827498 0.385759961
C 1.047743759 2.219453306 0.756718471
C 2.183768719 -0.171727803 0.388863949
N 0.425057137 -2.192360056 -0.181022270
H -3.287539494 -1.879305570 -0.752887392
H -3.157068909 2.685579973 0.459656775
H 1.824435558 -1.058366873 -1.822207042
H 4.095721216 -0.801999994 0.765627661

