13

C 1.212060377 0.314150433 -2.203430866
C 2.389292762 2.277043616 -1.184312036
H 2.572779386 4.040499243 -2.205679602
H 3.188591336 2.231756443 0.703959245
C 0.786965201 -2.225162527 -1.002069570
C 2.337243393 -2.744335943 1.358560507
O 4.953977053 -2.931525863 0.859851125
H 5.458196669 -1.466225385 -0.084119174
H 1.957857346 -1.301808706 2.802257749
H 1.781205748 -4.560959127 2.158962927
H -1.225983067 -2.411569496 -0.548849127
H 1.191799830 -3.698648807 -2.396158062
H 0.444500434 0.521894092 -4.097988718

