19

C -3.566770037 -0.109500369 1.907340413
C -2.508180667 2.071100659 0.699118712
C -0.464162997 0.807048926 -1.550549236
C 1.789987230 1.979097944 -2.256994246
C 0.321784927 -1.686608118 -0.380252486
C 2.270501479 -1.762891165 1.710859673
O 4.741886117 -2.372571426 0.901108419
H -1.777043343 -1.921301993 0.841044079
H -5.327662930 -0.889003590 1.201357271
H -3.214511840 -0.456721425 3.895747828
H -1.362045124 3.264225262 1.916052731
H -3.794866632 3.202177824 -0.430335652
H -1.712509385 0.470033960 -3.154682733
H 2.080998175 2.817738367 -4.102646968
H 3.250130834 2.325018906 -0.860857083
H 0.632332106 -3.197920574 -1.748424348
H 2.249620232 0.027324495 2.763722870
H 1.751583025 -3.248177330 3.046440978
H 5.074701583 -1.414435381 -0.603682421

