12

C 3.943015018 -2.296765554 1.272356360
C 1.869548479 -1.141632760 0.630378148
C -0.193938189 -0.001232914 -0.010218486
C -2.179448068 -0.293688838 -2.041885852
O -3.532734425 1.842365336 -1.051530713
C -1.711415441 2.229529514 0.925433352
H 5.755072435 -1.727743223 0.503028918
H 3.919906975 -3.860831245 2.596033808
H -1.529647542 0.025352981 -3.978159049
H -3.293406640 -2.032780225 -1.956676608
H -2.545407365 2.018894650 2.805049687
H -0.777161812 4.067499234 0.777724364

