12

C 3.097365620 -1.581141218 0.490248001
C 3.276222869 0.559188272 -0.816398838
C 0.595652918 0.127873213 -0.193772536
C -1.682418142 -0.530450829 -1.853588098
O -3.245340586 1.061745174 -0.313908170
C -1.201305568 1.782582282 1.317029958
H 4.150994326 -2.656030118 1.875633813
H 0.903555085 -2.265566950 0.905808754
H -1.494294584 0.180882222 -3.783543960
H -2.324928558 -2.492766852 -1.878855853
H -1.530843512 1.241210971 3.282369978
H -0.749491062 3.795410911 1.199107817

