17

C 4.370533901 1.047235668 0.637733604
C 0.757324242 -0.555519293 -0.495309368
C -0.106596975 -2.307044644 1.019031468
C -2.925619373 -1.948211806 0.893212558
C -3.238452138 0.061755362 -1.208996640
C -0.716932650 1.733717932 -1.468030754
O -0.422649304 3.623116794 0.050520467
H 5.030742982 0.943554238 2.584656788
H 5.675171640 2.066831087 -0.586031321
H 4.381556768 -0.904744479 -0.087202092
H 0.931521596 -3.583171045 2.221742293
H -3.556581767 -1.236186775 2.725998929
H -3.976227106 -3.675151594 0.486573183
H -3.547616585 -0.867199646 -3.022005799
H -4.768920823 1.383217616 -0.840844052
H -0.383737859 2.056706161 -3.505797683
H 2.617809538 2.305991084 0.701119214

