16

C -1.181492489 4.021585352 0.150084676
C -0.701927053 1.263976275 0.126301149
C 1.425778594 -0.046296400 -1.093618221
C 1.693859527 -2.431598004 0.613102460
C 3.665017899 -3.667097373 1.493673412
C -1.038713136 -2.914720718 1.387967480
N -2.079443195 -0.333935223 1.373239182
H 0.471392862 4.966654772 0.948097631
H -2.844483434 4.530887707 1.254043894
H -1.402018406 4.716848361 -1.778671229
H 3.109537044 1.129624137 -1.262115216
H 0.842068141 -0.621441671 -3.002445206
H 5.475399923 -2.927039842 0.782243493
H -2.099092038 -4.048015647 0.017263083
H -1.202481564 -3.759955586 3.258347874
H -3.592572508 0.204546753 2.399358029

