16

C -0.543477920 3.045323923 1.072389189
C -0.771394084 0.572434931 -0.268411861
C 1.205932033 -0.323168924 -2.087428062
C 1.857023034 -1.499549798 0.354153460
C 3.472557968 -1.754245234 2.225203081
C -1.405020255 -2.230204921 1.372125793
N -3.098900834 -0.734147393 -0.240578444
H 1.401584110 3.708040444 1.087798413
H -1.192750778 2.893225461 3.023288620
H -1.738020555 4.417814074 0.089432687
H 2.495758590 1.128734964 -2.749015661
H 0.479704728 -1.527556919 -3.588820060
H 5.412663000 -1.784169274 1.485262940
H -1.375701136 -4.210325641 0.853838319
H -1.434534281 -1.858695933 3.384789770
H -4.387138282 0.221043325 0.805834645

