10

O -3.875297495 -0.738644639 1.065769743
C -1.937287375 -1.871287368 1.107568406
C 0.670742962 -0.599227241 1.476525035
C 0.614450478 2.137208966 1.165196228
C 0.542716965 4.377669790 0.914989818
H 0.473763486 6.375703168 0.684211229
C 2.525095984 -1.833971588 -0.173863591
N 3.916613862 -2.880636181 -1.461391523
H 1.210218688 -1.058845900 3.428342571
H -1.832627199 -3.952776172 0.940225750

