12

O -3.714746666 -0.694144669 0.475777858
C -1.558462369 -1.794343446 0.885684985
C 0.727336858 -0.415547676 0.040528767
C 0.927622354 2.227425890 0.299800817
C 1.087880219 4.473699568 0.556935926
C 3.019844292 -1.810953193 -0.275196526
N 4.814055419 -2.999565244 -0.567992525
H -2.773432528 -0.113464240 -2.322743714
H -1.014557182 -1.616109769 2.955500195
H -1.379356679 -3.831701154 0.470890856
H -1.429868529 -0.102076335 -3.095510041
H 1.217041318 6.470690535 0.782316758

