15

C -4.066507373 -0.379000070 0.774495030
C -1.633333678 1.050335461 0.212529428
C 0.624441006 -0.704360888 -0.121875486
C 3.040397237 0.754216946 -0.691699420
C 6.838536553 -2.264528470 -1.275425786
N 5.148928684 -0.884115246 -1.013730238
H -3.900365959 -1.478279306 2.513886544
H -5.658421731 0.911683440 0.997895127
H -4.527286778 -1.690765421 -0.751312815
H -1.244831762 2.387721909 1.743150255
H -1.877708166 2.188042146 -1.498710061
H 0.908988218 -1.832745421 1.585796785
H 0.267608784 -2.037684764 -1.659808041
H 3.479408527 2.064844304 0.841265952
H 2.831499938 1.866027844 -2.418264475

