14

C -4.465712074 0.809805659 -0.118366813
O -2.119705170 -0.148422605 -0.915594304
C -0.261272306 0.011174215 0.959348248
C 2.156359848 -1.053157333 -0.110699306
C 5.358341141 0.527096017 -0.190672327
O 4.133077719 -0.823050919 1.692763504
H -5.181602540 -0.222450169 1.531295912
H -4.331170566 2.821051113 0.366121133
H -5.786386558 0.579473140 -1.678455046
H -0.785964118 -1.090090367 2.640490447
H 0.074790031 1.971033972 1.551388652
H 2.031154343 -2.965714127 -0.861571683
H 2.667549038 0.274327970 -1.747974064
H 6.229599389 -0.954466556 -1.437690181

