11

N 5.932730256 0.356302759 0.474849492
C 3.929843060 -0.347445896 0.043208210
C 1.354738895 -1.191274411 -0.467312055
C -0.554770546 0.402369122 0.981655822
C -4.778918381 0.499340645 -0.695947997
O -3.032135695 -0.652618429 0.555768623
H 1.172592238 -3.171506114 0.080561255
H 0.999275950 -1.064860898 -2.496018768
H -0.208102537 0.311373991 3.009265643
H -3.973007032 2.371330386 -1.305011697
H -0.546753515 2.370054481 0.354066891

