11

N 5.727479165 0.764679150 0.602236214
C 3.843138042 -0.190497168 0.123479448
C 1.411842601 -1.362403586 -0.447430133
C -0.783067508 0.131106572 0.641236816
C -3.615529922 1.268504720 -1.156041487
O -3.086515493 -1.048317291 -0.001896189
H 1.369390187 -3.267140316 0.343173811
H 1.173186236 -1.520804380 -2.489563879
H -0.671419031 0.559037850 2.651326798
H -4.380265688 2.480319263 0.405046940
H -0.779049705 2.028639571 -0.444986377

