18

C 3.934536422 0.425399555 1.490617214
C 2.553194133 -1.155159647 -0.225890680
C -1.654802913 0.502041121 -0.038171391
C -3.308617839 -1.596500742 0.950711991
C -2.259224765 1.465959123 -2.650878044
C -0.483566100 2.075756263 1.634100207
N 1.062535571 3.055952555 2.903696471
H 5.012237253 2.002292178 0.777999282
H 4.937219964 -1.535212464 0.127747640
H 4.275669234 -0.201732213 3.400211163
H 1.759045421 -2.923631740 0.412889662
H 2.498741788 -0.720941382 -2.219533524
H -2.727828108 -2.200351236 2.834696712
H -5.298901563 -1.034294143 1.059364989
H -3.220233402 -3.237507388 -0.306750341
H -4.179842110 2.230510320 -2.773571329
H -0.957313485 2.956332506 -3.229799346
H -2.136319718 -0.069889801 -4.032059631

