10

O -1.205923945 -1.505944386 1.893584435
C -3.530176284 -1.400466507 0.807633759
O -3.994086681 -0.572496290 -1.223562876
C 1.493434191 1.888632238 -0.804692192
C 0.715978659 -0.315518292 0.712210697
C 3.111622753 -0.178611509 0.408489133
H -4.893181295 -2.241259158 2.123354968
H 1.177702360 1.879040252 -2.836391230
H 1.479663530 3.768899508 0.038314953
H 5.004780394 -0.831714293 0.734097316

