15

C 4.005882408 0.943778889 0.030240116
O 1.822601201 -0.183678885 1.065032995
C -0.342282899 -0.031531913 -0.287948209
C -0.623497107 1.123973478 -2.503595663
H 0.894562616 2.102286147 -3.454138712
H -2.449462455 1.100768982 -3.414816687
C -2.418410645 -1.430282379 1.040020372
C -2.062236860 -4.263527687 0.899882195
O -3.771630540 -5.732998809 0.674377340
H -0.079889929 -4.926641900 1.035771720
H -4.268586200 -0.954196136 0.278468417
H -2.385144114 -0.915819465 3.045466238
H 4.485153557 0.096423370 -1.793791116
H 5.524516664 0.601815032 1.371726002
H 3.741649733 2.979963644 -0.212596287

