17

C 4.053126185 0.224138186 -0.178537904
O 2.013731370 -0.067849161 1.516249516
C -0.407615361 0.000540670 0.534215314
C -0.941729632 1.446736810 -1.654799927
C -2.251419025 -0.204699726 2.512838672
C -1.174819847 -3.007323005 -0.204464058
O -2.924800498 -3.800338277 -1.357421323
H 3.910316785 -1.058362338 -1.797611651
H 5.749946270 -0.233638633 0.888932781
H 4.196892221 2.167101618 -0.865259974
H 0.537442702 1.934220784 -2.978602815
H -2.071386291 3.779082354 0.669168537
H -2.806610639 1.218473749 -2.465075070
H -2.532429538 3.290522842 2.089532102
H -4.214030525 -0.409370520 1.990947944
H -1.647253608 -0.933924496 4.326589718
H 0.485468317 -4.121117510 0.404702537

