10

C -3.508991963 0.497712231 -0.431131567
O -0.880454544 0.854474306 -0.940163956
C 0.669346455 -0.714869069 0.274637979
O 0.012106058 -2.342594455 1.707746481
C 3.292352172 -0.201342193 -0.359825888
C 5.474612607 0.152923290 -0.824268829
H -4.486839798 1.901051556 -1.566293395
H -4.093391808 -1.403060099 -0.966184899
H -3.898237674 0.786754307 1.570549644
H 7.419498514 0.468950126 -1.235882038

