10

C -3.090221492 0.558100035 -0.659213535
O -2.445496562 0.346767900 1.601037086
C 0.948727382 -0.309149424 1.897856917
O 1.578110457 -0.533677215 3.946048407
C 1.642727941 -0.300304391 -0.819996498
C 3.971473198 -0.693403141 -1.346190076
H -3.279689722 2.428857410 -1.530591517
H -0.174622977 0.087508436 -1.964801391
H -3.912962534 -1.051177259 -1.673596541
H 4.954961487 -0.778975098 -3.132831622

