12

C -1.759238854 -1.891811381 0.927292464
H -2.783590675 -3.646296855 0.790494907
C -2.600163748 0.615800952 -0.039582657
H -4.029519991 0.357642007 -1.503675090
H -3.429877105 1.816555570 1.443403144
O -0.539020718 1.897855443 -1.178968306
C 1.469085372 2.174832431 0.579378219
H 0.872031600 3.446329457 2.114665138
H 3.022513719 3.092594232 -0.418827749
C 2.285443732 -0.350329674 1.511943794
H 4.200503525 -0.982791283 1.791079586
O 0.615889447 -2.153891847 1.501723513

