14

C -1.571480296 -2.063694142 0.230531129
C -2.570304563 0.537067629 -0.265020861
O -0.684268677 2.211362027 -1.135710642
C 1.518866692 2.119486812 0.364880868
C 2.392113859 -0.526500734 0.862756295
O 0.663609057 -2.250638946 1.290914057
H -2.814826091 -3.623114848 0.671237390
H 0.468321263 -2.113511026 -2.892413654
H -4.030727752 0.468576603 -1.716834685
H -3.442074153 1.309738790 1.463428780
H 1.180258384 3.109601445 2.167384170
H 2.977638280 3.163834544 -0.648221301
H 4.174541655 -0.915115258 1.781066986
H 1.862602602 -1.578439175 -2.670777314

