17

C 4.452610036 0.821886300 1.126417290
O 1.964678181 0.939570091 0.192001447
C 0.851270219 -1.606031368 -0.413518733
C -0.580849541 0.031104231 2.555915357
C -1.816110596 -1.081993684 0.332072671
C -3.497541507 0.659766847 -1.225592555
O -4.034354156 -0.391684932 -3.614108319
H 5.769382122 0.577370744 -0.446725624
H 4.665056108 -0.787130249 2.408802786
H 4.862774127 2.604908982 2.081546705
H 1.298431500 -2.257739214 -2.319163306
H 0.102809151 -1.241179659 3.997838562
H -0.814952687 2.002737151 3.091628109
H -2.756889129 -2.866810076 0.778753830
H -5.321898113 0.939297819 -0.296935690
H -2.584546352 2.513830117 -1.411909592
H -2.445663784 -0.798492001 -4.394209883

