10

O 2.374878158 -0.663440645 2.569364897
C 2.468820979 -0.769126564 0.105399097
C 0.419051039 0.491419556 -1.270258084
C -2.179540400 -0.356186181 -0.536887897
N -1.298668926 2.125080666 0.141245822
H 4.023501685 -1.756397518 1.593448305
H 0.789180130 1.000723971 -3.214867222
H -3.606326521 -0.434217225 -2.002591189
H -2.315378430 -1.790926424 0.921426036
H -0.741542874 2.138434473 1.982846423

