14

C -3.927215075 -1.558635431 0.312875718
C -1.857975986 -0.304581937 -1.038134294
C -0.180956753 1.110975715 0.651509594
C 2.478511022 1.651074653 -0.329253427
C 3.977329875 -0.754016465 -0.563342740
O 6.087809213 -1.047420559 0.210135013
H -4.341796174 -0.931062978 2.249991752
H -5.644097985 -1.761649936 -0.807109265
H -3.138661125 -3.488443705 0.448012074
H 2.324869334 2.449561325 -2.231391537
H -0.179471240 0.503452444 2.643152749
H -1.278026408 2.897742341 0.633849329
H 3.511140600 2.970941355 0.869823531
H 2.966539937 -2.313674011 -1.544260001

