14

C -2.774856720 -1.708730915 -0.317510914
C -1.904889741 0.937822718 -0.883519755
C -0.421117719 2.087784956 1.161136283
C 1.693765021 1.148854198 -0.595465004
C 3.304649320 -0.938116929 0.390713764
O 5.555765497 -0.997603920 0.116260827
H -1.933219456 -2.671745704 1.315515985
H -4.782439697 -1.434231680 0.111211705
H -2.718234157 -2.939520085 -1.968872352
H 0.516068066 0.498744210 -2.367445922
H -0.414002050 1.151963988 3.004651990
H -0.441892026 4.131520868 1.334863228
H 2.770598922 2.673120253 -1.452281644
H 2.303170516 -2.468335187 1.405856327

