13

C -2.785616065 -0.187660406 -0.858173199
N -0.073021814 0.065125310 -0.410091262
C 1.254574283 1.956022252 1.275451807
C 3.519361495 0.389182557 0.234001347
O 2.387719509 0.699192392 -2.214824856
C 1.732774978 -1.927294220 0.563216091
H -3.112010752 -1.694318069 -2.219794061
H -3.695877014 -0.659141329 0.936864815
H -3.527215858 1.594249247 -1.568964050
H 1.098760733 3.880518752 0.566860579
H 0.658892187 1.778001415 3.248861108
H 1.195297581 -2.595590875 2.446010133
H 2.005812813 -3.460977348 -0.779471700

