17

C -2.586593681 2.191814889 0.684140667
C -2.340514981 -0.608265177 0.225038054
C -2.035412179 -1.646050703 -2.400022816
C 0.104993996 -1.820582142 -0.546359318
C 2.492817893 -0.297606996 -0.959274189
C 3.792996691 0.319760274 1.400644500
C 4.834670423 0.808536368 3.349452874
H -4.554292306 2.784416486 0.495225464
H -1.944869145 2.694246012 2.579518074
H -1.482976693 3.297566664 -0.661489503
H -3.483004770 -1.753504952 1.483817526
H -3.029779660 -3.354178626 -2.923997440
H -1.842534391 -0.285126300 -3.920084137
H 0.457625659 -3.671719549 0.257703180
H 2.071260851 1.454452354 -1.966490466
H 3.781179704 -1.361682089 -2.175297738
H 5.764432551 1.247923486 5.077475248

