12

C -2.912101406 1.729460039 -0.453886534
C -1.384338431 -0.501365959 0.410303194
O -2.121968590 -2.026886340 1.923650375
C 1.233635248 -0.783094985 -0.747251907
C 3.019196532 1.166143982 1.144307346
C 3.938149370 -1.000115461 1.367032338
H -4.626430144 1.882558223 0.667925343
H -3.415040562 1.482639225 -2.442892614
H -1.786213674 3.449207397 -0.300675741
H 1.467890782 0.139463999 -2.567043047
H 1.550729629 -2.816543965 -1.017332151
H 4.854841303 -2.757629864 1.769514920

