8

C -1.315961847 -0.914149703 -0.656295137
N -1.909431357 1.459093786 0.531806102
N 0.223605340 3.201968594 -0.145096914
N 2.121975827 1.941232916 -0.407370339
C 1.352781762 -0.680368792 0.036975572
N -0.682317270 -0.650171517 1.951736032
H -2.561580624 -2.259446317 -1.550615697
H 2.754825794 -2.162812148 0.074388048

