13

N 2.516036486 0.470636991 3.979505403
C 1.878622396 0.443644653 1.907978347
C 1.011465798 0.491647344 -0.738378415
C -0.057108827 -2.021685397 -1.571076235
C -0.157675705 -4.094000262 -0.183941084
C -1.566640178 3.965949075 0.352521870
N -0.805183294 2.473240444 -1.333350767
H 2.679942750 0.886328663 -1.901031562
H -0.781940022 -1.987747182 -3.487758698
H 0.538746802 -4.153541923 1.742302618
H -0.950287729 -5.818722890 -0.946489474
H -2.931091869 5.407885489 -0.178616309
H -0.947222688 3.909149142 2.325347265

