13

N 4.250970646 0.910362465 3.457211861
C 3.216285405 0.781682490 1.557020735
C 2.060061842 0.698516853 -0.921881328
C -0.001244781 -1.236592556 -1.615013879
C -1.516928117 -2.614278452 0.093444330
C -1.731298762 2.124057455 0.779953769
N -0.420784560 1.627450563 -1.321166531
H 3.374966237 1.056713684 -2.450763399
H 0.424925517 -2.026116030 -3.472111520
H -3.293966112 -1.884484005 0.745141952
H -1.330575345 -4.653907234 0.120246335
H -3.770988714 2.076474586 0.664324526
H -0.833763097 3.112904366 2.330604181

