13

N 3.555069079 -1.037861719 -0.067448199
C 1.764284177 1.324112727 -0.284762716
O 2.549892252 3.332593512 -0.938550697
C -0.398635269 0.228473671 0.884223697
C -2.409664350 -1.134683954 -0.632424740
C -3.006184747 1.233529991 0.815339061
H 3.982360345 -1.864050983 -1.742892666
H 5.157032604 -0.624845559 0.896655714
H 1.754544283 -1.592568184 1.285555096
H -2.397041811 -0.986914325 -2.677491794
H -3.100968345 -2.926001287 0.080843013
H -4.131670591 1.064653992 2.517554635
H -3.367438059 2.928435065 -0.279745267

