14

C -2.106094361 1.519757793 -0.776120384
C -2.510148666 -0.607836606 0.856427867
C 0.334309521 0.050410466 0.172554804
C 1.899410404 -1.627956613 -1.620389299
O 4.298515116 -1.571192037 -0.975475662
C 1.757928461 1.201553198 2.004883691
H -2.349492522 1.293923691 -2.793028497
H -2.329504341 3.418747222 -0.059209069
H -3.040275841 -0.314196599 2.806593915
H -3.056818182 -2.402414624 0.045028489
H 1.002400801 -3.540895415 -1.549145434
H 1.486538562 -0.930547990 -3.572950329
H 0.952687511 2.448263934 3.420875772
H 3.768290053 0.750890575 1.903908992

