11

C 2.846439697 0.619623093 1.937330612
C 2.432992017 0.538687767 -0.865845487
C 0.375462125 1.405687026 -2.028014752
N -1.655358984 2.616214326 -0.884202608
H -3.325264758 2.417044203 -1.767508295
H -1.802448368 2.385550179 0.998941563
H 0.230138463 1.291028971 -4.069352810
H 3.920412911 -0.232997127 -2.039118839
H 1.115898508 0.198129129 2.991174879
H 3.511596364 2.472250738 2.575042674
H 4.253579583 -0.768350113 2.518950198

