17

C -3.352820007 0.949708660 0.441629978
C -1.526356168 -1.211392284 0.372335044
C -0.263232915 -1.745277085 -2.080971586
C 1.771255773 0.478643798 -1.972336258
C 2.526263041 1.356438704 0.665475124
C 1.621667510 0.441202730 2.861265789
C -0.016940790 -1.779923758 2.373963096
H -2.990476833 2.373048147 -1.012614487
H -5.254293387 0.212714262 0.088982403
H -3.373847594 1.849525470 2.294923090
H -1.411403750 -1.587937845 -3.789896898
H 0.717081541 -3.557951195 -2.078482987
H 0.968125421 2.106748717 -2.964688988
H 3.467465987 -0.039556635 -3.037848148
H 3.968530667 2.821887997 0.703952310
H 2.339134839 1.091403991 4.670698547
H 1.050138571 -3.539793932 2.258881024

