15

C 3.567066913 -0.411714272 -1.179475698
C 1.060281676 0.425397042 -0.184739872
C -1.017552266 -1.118631827 1.166757727
C -3.619919283 -1.545434087 0.155866312
N -3.802522082 -0.762398119 -2.173152899
C -0.994543206 1.027250529 3.069461811
N 0.831819305 2.156265116 1.712375252
H 4.696691371 -1.457868223 0.215717339
H 3.324458563 -1.634620298 -2.821434558
H 4.686552876 1.214397685 -1.790577108
H -0.230492428 -2.870968531 1.929363262
H -2.313024682 0.053737896 -3.092054545
H -5.474208432 -0.841047481 -3.081039520
H -2.526781034 2.007483803 4.010624506
H 1.795450504 3.773395186 2.041590903

