15

C 3.938923648 -0.460154226 -0.729011439
C 1.264045590 -0.130854615 0.089194601
C -0.606580675 -1.945781089 0.605269829
C -3.346924080 -1.830235600 0.046964740
N -3.912911417 -0.241013686 -1.778128046
C -1.290200647 1.146745188 3.132345301
N 0.424503050 1.918524625 1.377866781
H 5.175198201 -0.879002403 0.878399505
H 4.109514346 -1.993243829 -2.091709785
H 4.655088275 1.256479599 -1.625623954
H -0.005772244 -3.886260420 0.963964508
H -2.614966407 0.825871846 -2.720591610
H -5.724295675 -0.041351837 -2.315450353
H -2.870369507 2.523311912 3.242722692
H 0.798573807 3.738927979 0.923311038

