15

C -2.634967268 -2.335731763 -0.330573136
C -1.980686844 0.325418511 -0.982329831
C -0.385152451 3.276719564 1.068542406
N 0.303250927 1.323883371 -0.460116167
C 2.779644285 0.222091272 -0.803685686
C 3.531477625 -1.438425927 1.294536756
N 4.069948470 -2.758990618 2.925956670
H -2.753757550 -2.596487248 1.721617411
H -1.184834394 -3.654664184 -0.995702931
H -4.436599180 -2.890417233 -1.155643001
H -3.286141569 1.525068509 -1.988731087
H 0.311129309 5.175146819 0.709200457
H -1.433671565 2.877831261 2.772308708
H 2.827055472 -0.860282889 -2.560029196
H 4.149372714 1.758845942 -0.954240337

