12

N -3.767193671 -0.635131792 0.981639438
C -1.117135088 -0.448274387 0.354236003
N 0.853208359 -1.940051251 0.179538287
C 2.653928327 -0.245358053 -0.556160628
O 5.062054402 -0.989794532 -0.974407551
C 1.702928417 2.171472555 -0.792736424
N -0.818438306 1.973567452 -0.172131978
H -4.160867862 -1.109438517 2.796590309
H -4.833239484 -1.679144569 -0.221484179
H 5.113266660 -2.780352838 -0.679115167
H 2.616470629 3.903108443 -1.337702768
H -3.324503255 1.729229020 0.431844693

