13

N 2.869343234 1.658690798 0.547483667
C 3.278351721 -0.146898692 -1.092878148
O 1.655222904 -0.923304311 -2.634353712
C -1.569725496 -0.331913519 -1.953407230
C -2.449861943 -1.388623140 0.464577754
C -2.160387742 1.401803129 -0.083148573
H 4.193576772 2.015475266 1.859737437
H 5.146147271 -1.046958596 -1.151335824
H -2.196830298 -0.731226066 -3.850530669
H -4.256952064 -2.374458544 0.427145435
H -1.092430509 -2.255223780 1.749469858
H 0.845466945 2.098592923 0.716360819
H -3.640312395 2.797700353 -0.282003282

