13

C -2.262909996 -1.268378865 -0.166464444
C -1.469362161 1.349608912 -0.855652248
O 0.527205337 2.202598819 0.757029766
C 2.914244847 1.358202461 0.073422115
C 3.158752768 -1.458881059 -0.271911993
N 1.434415134 -2.943545901 -0.364922952
H -3.432878991 -2.198106619 -1.584914038
H -0.206991113 -3.936132938 -0.379100849
H -3.010340330 -1.449908451 1.740146554
H -2.980121644 2.743768042 -0.627144977
H -0.849768264 1.437923373 -2.836651766
H 4.221770125 1.922824640 1.560017255
H 3.573193027 2.212772065 -1.704321428

