12

N 4.365585464 -1.074696866 1.254874579
C 2.578093542 -1.819567038 2.352930293
C 1.168082784 -0.184336642 -0.840675696
C -1.240478835 -1.732417310 -1.011241053
N -3.070011362 -0.374055413 0.531066180
C -2.095669857 1.761339303 0.978764314
N 0.311135507 2.117727874 -0.054157245
H 2.555127001 -0.276840984 -2.327826359
H -1.871559016 -1.666254577 -2.987942937
H -1.039917004 -3.694725377 -0.455455819
H -2.992754615 3.267859111 2.032603404
H 1.472999751 3.548883798 0.401877340

