10

C 4.899519795 -0.208663785 0.635790323
C 2.743870106 0.480641276 0.497067399
C 0.232761460 1.223136006 0.320945076
C -1.568912158 2.677994027 0.410785944
O -4.822279092 0.338800096 -0.601328956
N -3.617434785 -1.584270208 -0.881923447
C -1.518700189 -2.378443297 -0.772005543
H 6.823695362 -0.777730600 0.771600140
H -2.798083231 4.258172297 0.612997014
H -0.386478586 -4.042138240 -0.995679744

