15

C 3.338251938 -1.108730399 0.089676424
C 1.649007028 1.234148876 0.006694260
C -0.813292638 0.780209619 1.350415202
O -0.612977568 1.313705647 3.844066672
N -2.888152340 -0.046036053 0.529204611
C -3.234835164 -0.723442548 -2.085046214
H 2.439040275 -2.705155098 -0.857585645
H 5.138986759 -0.742702656 -0.843921848
H 3.724513791 -1.659377033 2.038104888
H 2.587815446 2.819772241 0.929555997
H 1.287199743 1.783698240 -1.945251909
H -2.229092383 0.889717490 4.576431449
H -4.906607118 0.236305376 -2.820799081
H -1.639395465 -0.281301399 -3.328118357
H -3.599537359 -2.751577449 -2.221508118

