12

N 0.987078750 2.645445497 1.715150296
C -0.024288461 0.647719238 0.318640271
C -2.466470954 0.269188425 -1.105758464
C -1.400392373 -1.481414437 0.762576962
O 0.982185229 -3.568049419 -1.627879833
C 2.119941140 -1.571988481 -1.172918669
O 4.189054733 -0.713592181 -1.279351238
H 2.219056973 3.637018546 0.640465921
H 1.926102823 2.018211306 3.255927550
H -4.163575386 1.233680035 -0.448695437
H -2.421043638 -0.163553717 -3.106978525
H -1.908939688 -2.966539200 2.059173066

