14

C -2.607030181 1.158362827 1.273169018
C -1.013343014 -1.076136686 0.611800666
C -0.247165009 -2.873693252 2.167399136
C 3.028411385 1.593429767 -1.670146393
C 1.365402431 0.204893706 -2.925141121
O -0.478875818 -1.284549251 -1.945132328
H -2.937263128 1.248963875 3.301667388
H -4.424587438 1.027181460 0.303997709
H -1.706162324 2.910736665 0.663491327
H -0.747803046 -2.815585666 4.147562829
H 0.874146166 -4.440064579 1.483970084
H 4.400439138 2.678904365 -2.721440097
H 3.089756090 1.662962901 0.372577231
H 1.338204585 0.097664769 -4.969648193

