13

N 5.914145461 -1.374671632 -0.156503263
C 3.715063441 -0.805254518 0.107467062
C 1.201153804 -0.249727402 0.063320603
C -1.133273254 -1.771279792 0.700352344
C -2.671362241 0.707420014 0.369334310
C -0.243249288 2.175636755 -0.385523612
H 3.701775227 -1.386559294 -2.023031412
H -1.620176667 -3.259109698 -0.644834571
H -1.165695739 -2.581544352 2.598500468
H -4.116000132 0.627150722 -1.093682207
H -3.534399841 1.383689650 2.109996287
H 0.258146982 3.741114374 0.862589602
H -0.238872399 2.872233438 -2.328656270

