13

O 3.888680384 3.149002273 -0.915152486
C 2.231390743 1.211065739 -0.944977277
C -0.557381164 -3.240539567 -0.417988011
C -1.854300298 -0.905920267 0.121789844
N -1.620750747 -0.351840076 2.723009363
C -0.223223199 1.399595834 -0.269538572
H 3.204231163 4.531803336 0.041501636
H 3.076182281 -0.508369095 -1.642683343
H -0.830147691 -4.819177295 0.847845997
H 0.726225567 -3.463271986 -1.990038929
H -3.709307562 -0.669120765 -0.781642636
H -3.284139706 0.414720032 3.371911267
H -1.085352578 3.232281502 0.039568919

