9

N -0.525168572 -2.308120068 -0.465748382
C 0.084109196 1.118929799 1.112707252
C 1.764440098 -0.697548538 -0.087360848
N 3.995542072 -0.913472444 -0.515681466
C -0.941981721 3.228255932 -0.172508336
N -1.815329837 4.885211601 -1.279150077
H -0.748323060 -3.920561444 0.547340728
H -1.320547513 -2.358857873 -2.207680236
H -0.261236004 0.990077519 3.131774566

