14

C -3.151607790 -1.965449699 0.311267410
C -0.488514461 -1.098274638 0.329218637
C 0.602836920 1.139188286 -0.210895703
N -0.466271326 3.373786934 -1.135569272
C 3.273628747 0.698866981 0.171272984
C 3.678088039 -1.823236470 1.041882074
O 1.302265982 -2.854814793 0.939782968
H -4.442240371 -0.376121469 0.078888053
H -3.492772727 -3.302463643 -1.223208590
H -3.604820485 -2.913995290 2.085028601
H 0.138647788 4.933475887 -0.223114748
H -2.370770026 3.344822440 -1.175660208
H 4.756624299 2.107062543 0.152853748
H 4.231166240 -1.019185783 -1.270228434

