15

C 4.215336175 -1.161996846 -0.150158224
N 1.756857232 -0.146591744 0.490739784
C 1.129670586 2.510428534 0.110715633
C -1.263370561 2.535866856 1.266099553
C -2.053873216 0.047812433 1.599221400
C -3.750152291 -0.851826214 -0.279415283
N 0.061115387 -1.549176388 1.397586677
H 4.766841085 -0.367103450 -1.963092020
H 4.094923185 -3.211699077 -0.223363266
H 5.576531735 -0.565248586 1.274210578
H -0.593224034 1.258226576 -2.173247461
H -2.539494204 4.125644954 1.145005695
H -2.016061402 -0.101966882 -2.281351493
H -5.308038445 0.348604392 -0.859986543
H -4.065583014 -2.865575631 -0.495958319

