14

C 3.783420466 -0.090416857 -1.093153594
C 1.019474590 -0.637531574 -0.915802552
O -0.275557879 1.501595767 -0.358800315
C -0.008042504 -2.909644951 -1.267880979
C -2.921372478 1.312195377 -0.057840851
O -3.874844641 3.682681226 0.456957641
H 4.477749686 0.659499508 0.699067803
H 4.839831643 -1.790941277 -1.562258451
H 4.130199572 1.338217813 -2.540099313
H -2.012481146 -3.275903467 -1.144639825
H 1.205918749 -4.488915360 -1.712753689
H -3.319035068 -0.052088864 1.457324397
H -3.791083759 0.673241785 -1.820055910
H -3.194182185 4.256026835 2.037786620

