8

N 3.731947180 -0.264352144 0.401445689
C 1.592745913 -0.160931590 1.785164744
O 1.493881792 -0.166520720 4.055850244
N -0.561998597 -0.044419449 0.191574217
C -2.760298044 0.082130219 0.834012333
O -4.900850880 0.205550405 1.224733675
H 5.390621820 -0.350217066 1.312521998
H 3.670239666 -0.248192075 -1.490538337

