10

N 3.546561570 -0.171520784 0.275060560
C 1.189193444 0.019910230 1.249981530
O 0.704650242 0.239413730 3.462928755
N -0.660815645 -0.071764617 -0.700913876
C -3.092098670 0.092527189 -0.217763535
O -4.774092984 0.308016193 1.175817131
H 5.016156772 -0.143068576 1.469709700
H 3.831962390 -0.365723213 -1.585808899
H -1.974386535 -0.217255709 -2.899338536
H -3.844455389 -0.121172792 -2.867755883

