14

C 4.257710373 0.032297404 -0.086745478
C 1.939323952 0.389457663 1.399464083
C -3.339872530 -2.255273385 -0.244211877
C -3.860677081 -0.053867796 0.844859606
O -2.370456993 1.998709937 1.058040404
C 0.057076910 1.809528132 -0.020681692
H 4.038979468 -1.965600443 -0.645180146
H 5.960779366 0.053572829 1.072965423
H 4.508836153 1.149874536 -1.820801690
H -4.778675948 -3.703259833 -0.251849886
H -1.544940585 -2.714993957 -1.101997040
H -5.681459194 0.304826713 1.711703360
H 0.862012405 3.734287077 0.057474093
H -0.083422357 1.323901739 -2.044364964

