13

C -2.364309090 0.529937976 1.278506720
C 0.223288546 0.181807319 0.145292689
C 1.048173709 -2.511762662 -0.259941844
C 1.338824755 2.200800783 -1.373964515
O 2.122153915 1.798425349 1.160320640
H -3.814973620 -0.260062144 0.041212470
H -2.480666463 -0.435536688 3.099205779
H -2.765740001 2.527537283 1.578567733
H 2.738625171 1.744733448 -2.806596976
H 2.952552411 -2.582783823 -1.040791343
H -0.234567376 -3.481534507 -1.553513952
H 1.042557897 -3.536190318 1.532016465
H 0.282976604 3.932735456 -1.699905176

