15

C 2.650233100 0.118879326 1.774111622
C 0.665977602 -0.582151638 -0.120734508
C 1.225429018 -2.666593517 -2.126248914
H 3.175547842 -3.332232764 -2.275395699
H -0.042522920 -4.282252170 -1.919364551
C 0.164491759 -0.783069927 -4.044448298
H -0.550744144 -1.050342756 -5.943452354
C -0.304285477 0.956242464 -2.265418437
C -2.558903902 1.717589687 -0.712564982
H -4.415033436 1.501308000 -1.581679488
H -2.435972134 3.509770927 0.306866087
O -1.905209350 -0.393929795 0.937712320
H 2.776537707 -1.337397200 3.232321488
H 4.490016579 0.272482274 0.854740096
H 2.207086031 1.913427580 2.685009919

