12

O 3.326030834 0.075289693 -1.618343501
C 1.844541620 0.417812739 0.565809437
C -0.746373241 1.525370638 0.128706336
C -2.432277210 0.010227897 -1.428659576
C 0.743081848 -2.045026482 1.569190420
O -2.298648836 -0.520810750 1.232851182
H 3.156621668 -1.694329823 -2.019464024
H 2.945909476 1.562985505 1.887365271
H -1.301336350 3.411342538 0.703591032
H -4.239423210 0.809133918 -1.965355572
H -1.664575613 -1.473994087 -2.608713114
H 0.694263892 -2.019384410 3.640403045

