12

O 3.445424864 0.078321778 -1.409925455
C 1.764340699 0.466587402 0.603521322
C -0.783116679 1.664855386 0.014467554
C -2.214825177 -0.156843432 -1.458159619
C 0.212218322 -1.794544002 1.433822988
O -2.087107829 0.169907336 1.939597660
H 3.113104676 -1.592837603 -2.041914802
H 2.771090647 1.531986607 2.068838335
H -1.209933321 3.671992973 -0.020388350
H -4.232372887 0.182449278 -1.583679158
H -1.437426640 -1.531111059 -2.740999291
H 0.666861427 -2.671839038 3.244199267

