13

C 2.305888963 0.651455473 -0.796355533
C 0.977066112 -0.541435410 1.465535314
C -1.660288750 -1.092726270 0.405053233
O -3.518253019 -1.080293800 2.304088337
C -2.123672178 0.841211679 -1.656502740
N 0.127595687 1.651765424 -2.224262734
H 0.403271656 2.913950503 -3.625571152
H 3.614561002 2.167376800 -0.310415295
H 3.320230754 -0.736031035 -1.944237901
H 0.786151031 0.820598149 3.002638052
H 1.942754977 -2.210176375 2.182930172
H -1.652151721 -2.933133170 -0.580175457
H -5.035449798 -0.441280284 1.535751698

