25

C     3.38131   0.40748  -0.32582
N     2.17980  -0.17315   0.23519
C     1.26447   0.58131   0.89127
O     1.43764   1.79595   1.10142
C     0.06388  -0.09646   1.40642
N    -0.30475  -1.24201   0.94292
C    -0.64838  -2.28406   0.37166
C    -1.57915  -0.48763  -1.63587
C    -2.95230  -1.09592  -1.42417
C    -1.16414   0.65023  -1.17362
C    -1.99279   1.63932  -0.37515
H     3.89636   1.03160   0.42241
H     4.06043  -0.40251  -0.62738
H     3.17027   1.03570  -1.20334
H     1.95183  -1.13332   0.00667
H    -0.64398   0.48576   1.97645
H    -0.68724  -3.24141   0.30769
H    -0.84354  -1.16606  -2.14611
H    -3.57333  -0.63560  -2.20008
H    -3.41467  -0.85807  -0.44904
H    -3.00329  -2.19029  -1.55385
H    -0.10982   0.94955  -1.32984
H    -1.40041   2.34465   0.21282
H    -2.73891   1.17129   0.29025
H    -2.56006   2.22057  -1.12665
25

C     3.38158   0.40717  -0.32532
N     2.18003  -0.17324   0.23597
C     1.26345   0.58241   0.88881
O     1.43825   1.79648   1.10132
C     0.05589  -0.09046   1.38963
N    -0.30219  -1.24839   0.94835
C    -0.65643  -2.26472   0.35317
C    -1.57171  -0.50280  -1.61731
C    -2.95123  -1.09647  -1.42297
C    -1.15700   0.64466  -1.15633
C    -1.99303   1.63817  -0.37567
H     3.89646   1.03158   0.42247
H     4.06053  -0.40259  -0.62720
H     3.17030   1.03556  -1.20324
H     1.95122  -1.13295   0.00599
H    -0.64378   0.48661   1.97460
H    -0.69340  -3.23601   0.29717
H    -0.84410  -1.16531  -2.14717
H    -3.56962  -0.63319  -2.20064
H    -3.41594  -0.85837  -0.44950
H    -3.00523  -2.19009  -1.55502
H    -0.11023   0.94966  -1.33025
H    -1.40178   2.34631   0.21148
H    -2.73952   1.17231   0.29033
H    -2.55938   2.21767  -1.12927
25

C     3.38185   0.40687  -0.32482
N     2.18027  -0.17332   0.23674
C     1.26244   0.58351   0.88635
O     1.43887   1.79701   1.10122
C     0.04790  -0.08447   1.37284
N    -0.29964  -1.25478   0.95377
C    -0.66447  -2.24539   0.33468
C    -1.56427  -0.51797  -1.59876
C    -2.95016  -1.09703  -1.42176
C    -1.14986   0.63910  -1.13904
C    -1.99327   1.63703  -0.37620
H     3.89657   1.03156   0.42253
H     4.06062  -0.40268  -0.62702
H     3.17032   1.03541  -1.20314
H     1.95061  -1.13259   0.00532
H    -0.64358   0.48745   1.97276
H    -0.69956  -3.23062   0.28665
H    -0.84466  -1.16456  -2.14823
H    -3.56590  -0.63079  -2.20120
H    -3.41721  -0.85867  -0.44996
H    -3.00717  -2.18989  -1.55618
H    -0.11065   0.94977  -1.33066
H    -1.40315   2.34796   0.21013
H    -2.74014   1.17332   0.29040
H    -2.55871   2.21477  -1.13190
25

C     3.38212   0.40657  -0.32432
N     2.18050  -0.17341   0.23751
C     1.26142   0.58461   0.88389
O     1.43948   1.79754   1.10113
C     0.03991  -0.07847   1.35605
N    -0.29708  -1.26116   0.95920
C    -0.67252  -2.22605   0.31619
C    -1.55683  -0.53315  -1.58020
C    -2.94909  -1.09759  -1.42056
C    -1.14272   0.63353  -1.12175
C    -1.99351   1.63588  -0.37673
H     3.89667   1.03154   0.42258
H     4.06072  -0.40276  -0.62684
H     3.17035   1.03526  -1.20303
H     1.95000  -1.13222   0.00464
H    -0.64337   0.48829   1.97092
H    -0.70572  -3.22522   0.27613
H    -0.84522  -1.16382  -2.14928
H    -3.56219  -0.62839  -2.20176
H    -3.41848  -0.85897  -0.45041
H    -3.00910  -2.18969  -1.55735
H    -0.11106   0.94988  -1.33107
H    -1.40452   2.34962   0.20878
H    -2.74075   1.17433   0.29047
H    -2.55803   2.21187  -1.13453
25

C     3.38239   0.40626  -0.32382
N     2.18074  -0.17350   0.23829
C     1.26040   0.58571   0.88143
O     1.44010   1.79807   1.10103
C     0.03191  -0.07247   1.33927
N    -0.29452  -1.26754   0.96463
C    -0.68057  -2.20672   0.29770
C    -1.54939  -0.54832  -1.56164
C    -2.94802  -1.09814  -1.41936
C    -1.13559   0.62796  -1.10446
C    -1.99375   1.63473  -0.37725
H     3.89677   1.03152   0.42264
H     4.06082  -0.40285  -0.62667
H     3.17037   1.03511  -1.20293
H     1.94938  -1.13186   0.00396
H    -0.64317   0.48914   1.96907
H    -0.71188  -3.21982   0.26562
H    -0.84578  -1.16307  -2.15034
H    -3.55848  -0.62598  -2.20232
H    -3.41975  -0.85927  -0.45087
H    -3.01104  -2.18949  -1.55852
H    -0.11148   0.94999  -1.33149
H    -1.40588   2.35127   0.20744
H    -2.74137   1.17534   0.29054
H    -2.55735   2.20897  -1.13716
25

C     3.38266   0.40596  -0.32332
N     2.18097  -0.17358   0.23906
C     1.25939   0.58681   0.87897
O     1.44071   1.79860   1.10093
C     0.02392  -0.06647   1.32248
N    -0.29196  -1.27392   0.97006
C    -0.68861  -2.18738   0.27921
C    -1.54195  -0.56349  -1.54309
C    -2.94695  -1.09870  -1.41816
C    -1.12845   0.62240  -1.08717
C    -1.99399   1.63358  -0.37778
H     3.89688   1.03150   0.42270
H     4.06092  -0.40293  -0.62649
H     3.17039   1.03497  -1.20283
H     1.94877  -1.13149   0.00328
H    -0.64297   0.48998   1.96723
H    -0.71804  -3.21443   0.25510
H    -0.84634  -1.16232  -2.15139
H    -3.55476  -0.62358  -2.20287
H    -3.42102  -0.85957  -0.45133
H    -3.01297  -2.18929  -1.55969
H    -0.11189   0.95010  -1.33190
H    -1.40725   2.35292   0.20609
H    -2.74199   1.17635   0.29061
H    -2.55667   2.20606  -1.13979
25

C     3.38293   0.40566  -0.32282
N     2.18121  -0.17367   0.23984
C     1.25837   0.58790   0.87652
O     1.44133   1.79912   1.10084
C     0.01593  -0.06048   1.30569
N    -0.28940  -1.28030   0.97549
C    -0.69666  -2.16805   0.26072
C    -1.53451  -0.57866  -1.52453
C    -2.94588  -1.09925  -1.41696
C    -1.12131   0.61683  -1.06989
C    -1.99423   1.63244  -0.37831
H     3.89698   1.03148   0.42276
H     4.06102  -0.40302  -0.62631
H     3.17042   1.03482  -1.20273
H     1.94816  -1.13112   0.00260
H    -0.64277   0.49082   1.96539
H    -0.72421  -3.20903   0.24458
H    -0.84690  -1.16157  -2.15245
H    -3.55105  -0.62118  -2.20343
H    -3.42229  -0.85986  -0.45179
H    -3.01491  -2.18909  -1.56086
H    -0.11231   0.95021  -1.33231
H    -1.40862   2.35458   0.20474
H    -2.74260   1.17737   0.29069
H    -2.55599   2.20316  -1.14242
25

C     3.38320   0.40535  -0.32233
N     2.18144  -0.17376   0.24061
C     1.25736   0.58900   0.87406
O     1.44194   1.79965   1.10074
C     0.00794  -0.05448   1.28890
N    -0.28685  -1.28668   0.98092
C    -0.70470  -2.14872   0.24223
C    -1.52707  -0.59383  -1.50597
C    -2.94481  -1.09981  -1.41575
C    -1.11418   0.61127  -1.05260
C    -1.99446   1.63129  -0.37883
H     3.89709   1.03146   0.42281
H     4.06112  -0.40310  -0.62614
H     3.17044   1.03467  -1.20262
H     1.94755  -1.13076   0.00193
H    -0.64257   0.49166   1.96354
H    -0.73037  -3.20364   0.23406
H    -0.84745  -1.16082  -2.15351
H    -3.54734  -0.61877  -2.20399
H    -3.42356  -0.86016  -0.45224
H    -3.01684  -2.18889  -1.56203
H    -0.11272   0.95032  -1.33272
H    -1.40999   2.35623   0.20340
H    -2.74322   1.17838   0.29076
H    -2.55531   2.20026  -1.14505
25

C     3.38347   0.40505  -0.32183
N     2.18168  -0.17384   0.24138
C     1.25634   0.59010   0.87160
O     1.44256   1.80018   1.10064
C    -0.00005  -0.04848   1.27211
N    -0.28429  -1.29307   0.98635
C    -0.71275  -2.12938   0.22374
C    -1.51963  -0.60900  -1.48742
C    -2.94375  -1.10037  -1.41455
C    -1.10704   0.60570  -1.03531
C    -1.99470   1.63014  -0.37936
H     3.89719   1.03145   0.42287
H     4.06122  -0.40319  -0.62596
H     3.17047   1.03452  -1.20252
H     1.94693  -1.13039   0.00125
H    -0.64236   0.49251   1.96170
H    -0.73653  -3.19824   0.22354
H    -0.84801  -1.16007  -2.15456
H    -3.54362  -0.61637  -2.20455
H    -3.42483  -0.86046  -0.45270
H    -3.01878  -2.18869  -1.56320
H    -0.11314   0.95043  -1.33313
H    -1.41135   2.35788   0.20205
H    -2.74383   1.17939   0.29083
H    -2.55464   2.19736  -1.14767
25

C     3.38374   0.40474  -0.32133
N     2.18191  -0.17393   0.24216
C     1.25533   0.59120   0.86914
O     1.44317   1.80071   1.10055
C    -0.00804  -0.04249   1.25532
N    -0.28173  -1.29945   0.99178
C    -0.72080  -2.11005   0.20525
C    -1.51219  -0.62418  -1.46886
C    -2.94268  -1.10092  -1.41335
C    -1.09990   0.60013  -1.01802
C    -1.99494   1.62900  -0.37989
H     3.89730   1.03143   0.42293
H     4.06132  -0.40327  -0.62578
H     3.17049   1.03437  -1.20242
H     1.94632  -1.13002   0.00057
H    -0.64216   0.49335   1.95985
H    -0.74269  -3.19285   0.21303
H    -0.84857  -1.15932  -2.15562
H    -3.53991  -0.61396  -2.20510
H    -3.42609  -0.86076  -0.45316
H    -3.02072  -2.18849  -1.56437
H    -0.11356   0.95054  -1.33354
H    -1.41272   2.35954   0.20070
H    -2.74445   1.18040   0.29090
H    -2.55396   2.19446  -1.15030
25

C     3.38401   0.40444  -0.32083
N     2.18215  -0.17402   0.24293
C     1.25431   0.59230   0.86668
O     1.44379   1.80124   1.10045
C    -0.01603  -0.03649   1.23853
N    -0.27917  -1.30583   0.99721
C    -0.72884  -2.09071   0.18676
C    -1.50475  -0.63935  -1.45030
C    -2.94161  -1.10148  -1.41215
C    -1.09276   0.59457  -1.00073
C    -1.99518   1.62785  -0.38041
H     3.89740   1.03141   0.42299
H     4.06142  -0.40336  -0.62560
H     3.17051   1.03423  -1.20232
H     1.94571  -1.12966  -0.00011
H    -0.64196   0.49419   1.95801
H    -0.74885  -3.18745   0.20251
H    -0.84913  -1.15858  -2.15667
H    -3.53620  -0.61156  -2.20566
H    -3.42736  -0.86106  -0.45362
H    -3.02265  -2.18829  -1.56554
H    -0.11397   0.95065  -1.33396
H    -1.41409   2.36119   0.19935
H    -2.74507   1.18141   0.29098
H    -2.55328   2.19156  -1.15293
25

C     3.38428   0.40414  -0.32033
N     2.18238  -0.17410   0.24371
C     1.25330   0.59340   0.86422
O     1.44440   1.80177   1.10035
C    -0.02402  -0.03049   1.22174
N    -0.27661  -1.31221   1.00263
C    -0.73689  -2.07138   0.16827
C    -1.49731  -0.65452  -1.43175
C    -2.94054  -1.10203  -1.41094
C    -1.08563   0.58900  -0.98344
C    -1.99542   1.62670  -0.38094
H     3.89750   1.03139   0.42305
H     4.06152  -0.40344  -0.62543
H     3.17054   1.03408  -1.20222
H     1.94510  -1.12929  -0.00078
H    -0.64176   0.49504   1.95617
H    -0.75501  -3.18206   0.19199
H    -0.84969  -1.15783  -2.15773
H    -3.53248  -0.60916  -2.20622
H    -3.42863  -0.86136  -0.45407
H    -3.02459  -2.18810  -1.56671
H    -0.11439   0.95076  -1.33437
H    -1.41546   2.36285   0.19801
H    -2.74568   1.18242   0.29105
H    -2.55260   2.18866  -1.15556
25

C     3.38455   0.40383  -0.31983
N     2.18262  -0.17419   0.24448
C     1.25228   0.59450   0.86176
O     1.44502   1.80230   1.10026
C    -0.03202  -0.02449   1.20495
N    -0.27406  -1.31859   1.00806
C    -0.74493  -2.05204   0.14978
C    -1.48987  -0.66969  -1.41319
C    -2.93947  -1.10259  -1.40974
C    -1.07849   0.58343  -0.96615
C    -1.99566   1.62556  -0.38147
H     3.89761   1.03137   0.42310
H     4.06162  -0.40353  -0.62525
H     3.17056   1.03393  -1.20211
H     1.94448  -1.12893  -0.00146
H    -0.64156   0.49588   1.95432
H    -0.76117  -3.17666   0.18147
H    -0.85025  -1.15708  -2.15879
H    -3.52877  -0.60675  -2.20678
H    -3.42990  -0.86166  -0.45453
H    -3.02652  -2.18790  -1.56788
H    -0.11480   0.95087  -1.33478
H    -1.41683   2.36450   0.19666
H    -2.74630   1.18344   0.29112
H    -2.55192   2.18576  -1.15819
25

C     3.38482   0.40353  -0.31933
N     2.18285  -0.17428   0.24525
C     1.25127   0.59560   0.85930
O     1.44563   1.80283   1.10016
C    -0.04001  -0.01850   1.18816
N    -0.27150  -1.32497   1.01349
C    -0.75298  -2.03271   0.13130
C    -1.48243  -0.68486  -1.39463
C    -2.93840  -1.10314  -1.40854
C    -1.07135   0.57787  -0.94886
C    -1.99590   1.62441  -0.38199
H     3.89771   1.03135   0.42316
H     4.06172  -0.40361  -0.62507
H     3.17059   1.03378  -1.20201
H     1.94387  -1.12856  -0.00214
H    -0.64135   0.49672   1.95248
H    -0.76733  -3.17127   0.17095
H    -0.85081  -1.15633  -2.15984
H    -3.52506  -0.60435  -2.20733
H    -3.43117  -0.86196  -0.45499
H    -3.02846  -2.18770  -1.56905
H    -0.11522   0.95098  -1.33519
H    -1.41819   2.36615   0.19531
H    -2.74691   1.18445   0.29119
H    -2.55125   2.18286  -1.16082
25

C     3.38509   0.40322  -0.31884
N     2.18309  -0.17436   0.24603
C     1.25025   0.59670   0.85684
O     1.44625   1.80336   1.10006
C    -0.04800  -0.01250   1.17137
N    -0.26894  -1.33136   1.01892
C    -0.76103  -2.01337   0.11281
C    -1.47499  -0.70004  -1.37608
C    -2.93733  -1.10370  -1.40734
C    -1.06421   0.57230  -0.93157
C    -1.99614   1.62326  -0.38252
H     3.89782   1.03133   0.42322
H     4.06182  -0.40370  -0.62489
H     3.17061   1.03364  -1.20191
H     1.94326  -1.12819  -0.00282
H    -0.64115   0.49756   1.95064
H    -0.77349  -3.16587   0.16044
H    -0.85137  -1.15558  -2.16090
H    -3.52134  -0.60194  -2.20789
H    -3.43244  -0.86226  -0.45545
H    -3.03040  -2.18750  -1.57022
H    -0.11563   0.95109  -1.33560
H    -1.41956   2.36781   0.19397
H    -2.74753   1.18546   0.29127
H    -2.55057   2.17996  -1.16345
25

C     3.38536   0.40292  -0.31834
N     2.18332  -0.17445   0.24680
C     1.24923   0.59780   0.85438
O     1.44686   1.80389   1.09997
C    -0.05599  -0.00650   1.15458
N    -0.26638  -1.33774   1.02435
C    -0.76907  -1.99404   0.09432
C    -1.46755  -0.71521  -1.35752
C    -2.93626  -1.10426  -1.40614
C    -1.05708   0.56673  -0.91428
C    -1.99637   1.62212  -0.38305
H     3.89792   1.03131   0.42328
H     4.06192  -0.40378  -0.62472
H     3.17064   1.03349  -1.20181
H     1.94265  -1.12783  -0.00349
H    -0.64095   0.49841   1.94879
H    -0.77965  -3.16048   0.14992
H    -0.85193  -1.15483  -2.16195
H    -3.51763  -0.59954  -2.20845
H    -3.43371  -0.86256  -0.45590
H    -3.03233  -2.18730  -1.57138
H    -0.11605   0.95120  -1.33602
H    -1.42093   2.36946   0.19262
H    -2.74814   1.18647   0.29134
H    -2.54989   2.17706  -1.16607
25

C     3.38563   0.40262  -0.31784
N     2.18356  -0.17454   0.24758
C     1.24822   0.59890   0.85192
O     1.44748   1.80442   1.09987
C    -0.06398  -0.00051   1.13779
N    -0.26382  -1.34412   1.02978
C    -0.77712  -1.97470   0.07583
C    -1.46011  -0.73038  -1.33897
C    -2.93519  -1.10481  -1.40493
C    -1.04994   0.56117  -0.89699
C    -1.99661   1.62097  -0.38357
H     3.89802   1.03129   0.42333
H     4.06202  -0.40387  -0.62454
H     3.17066   1.03334  -1.20171
H     1.94203  -1.12746  -0.00417
H    -0.64075   0.49925   1.94695
H    -0.78581  -3.15508   0.13940
H    -0.85249  -1.15408  -2.16301
H    -3.51392  -0.59714  -2.20901
H    -3.43498  -0.86286  -0.45636
H    -3.03427  -2.18710  -1.57255
H    -0.11646   0.95131  -1.33643
H    -1.42230   2.37112   0.19127
H    -2.74876   1.18748   0.29141
H    -2.54921   2.17415  -1.16870
25

C     3.38590   0.40231  -0.31734
N     2.18379  -0.17462   0.24835
C     1.24720   0.59999   0.84946
O     1.44810   1.80495   1.09977
C    -0.07197   0.00549   1.12100
N    -0.26127  -1.35050   1.03521
C    -0.78516  -1.95537   0.05734
C    -1.45267  -0.74555  -1.32041
C    -2.93412  -1.10537  -1.40373
C    -1.04280   0.55560  -0.87970
C    -1.99685   1.61982  -0.38410
H     3.89813   1.03127   0.42339
H     4.06212  -0.40395  -0.62436
H     3.17068   1.03319  -1.20160
H     1.94142  -1.12709  -0.00485
H    -0.64055   0.50009   1.94510
H    -0.79197  -3.14969   0.12888
H    -0.85305  -1.15334  -2.16407
H    -3.51021  -0.59473  -2.20957
H    -3.43625  -0.86315  -0.45682
H    -3.03620  -2.18690  -1.57372
H    -0.11688   0.95142  -1.33684
H    -1.42366   2.37277   0.18993
H    -2.74938   1.18849   0.29148
H    -2.54853   2.17125  -1.17133
25

C     3.38617   0.40201  -0.31684
N     2.18403  -0.17471   0.24912
C     1.24619   0.60109   0.84700
O     1.44871   1.80548   1.09968
C    -0.07996   0.01149   1.10421
N    -0.25871  -1.35688   1.04064
C    -0.79321  -1.93603   0.03885
C    -1.44523  -0.76072  -1.30185
C    -2.93305  -1.10592  -1.40253
C    -1.03566   0.55004  -0.86241
C    -1.99709   1.61867  -0.38463
H     3.89823   1.03125   0.42345
H     4.06221  -0.40404  -0.62418
H     3.17071   1.03305  -1.20150
H     1.94081  -1.12673  -0.00553
H    -0.64034   0.50094   1.94326
H    -0.79813  -3.14429   0.11837
H    -0.85361  -1.15259  -2.16512
H    -3.50649  -0.59233  -2.21012
H    -3.43752  -0.86345  -0.45728
H    -3.03814  -2.18670  -1.57489
H    -0.11729   0.95153  -1.33725
H    -1.42503   2.37442   0.18858
H    -2.74999   1.18951   0.29156
H    -2.54786   2.16835  -1.17396
25

C     3.38644   0.40171  -0.31634
N     2.18426  -0.17480   0.24990
C     1.24517   0.60219   0.84455
O     1.44933   1.80601   1.09958
C    -0.08795   0.01748   1.08743
N    -0.25615  -1.36326   1.04607
C    -0.80126  -1.91670   0.02036
C    -1.43779  -0.77589  -1.28330
C    -2.93199  -1.10648  -1.40133
C    -1.02853   0.54447  -0.84512
C    -1.99733   1.61753  -0.38515
H     3.89834   1.03123   0.42351
H     4.06231  -0.40412  -0.62401
H     3.17073   1.03290  -1.20140
H     1.94020  -1.12636  -0.00620
H    -0.64014   0.50178   1.94142
H    -0.80429  -3.13890   0.10785
H    -0.85417  -1.15184  -2.16618
H    -3.50278  -0.58993  -2.21068
H    -3.43879  -0.86375  -0.45773
H    -3.04008  -2.18650  -1.57606
H    -0.11771   0.95164  -1.33766
H    -1.42640   2.37608   0.18723
H    -2.75061   1.19052   0.29163
H    -2.54718   2.16545  -1.17659
25

C     3.38671   0.40140  -0.31584
N     2.18450  -0.17488   0.25067
C     1.24416   0.60329   0.84209
O     1.44994   1.80654   1.09948
C    -0.09595   0.02348   1.07064
N    -0.25359  -1.36965   1.05149
C    -0.80930  -1.89736   0.00187
C    -1.43035  -0.79107  -1.26474
C    -2.93092  -1.10704  -1.40012
C    -1.02139   0.53890  -0.82783
C    -1.99757   1.61638  -0.38568
H     3.89844   1.03121   0.42356
H     4.06241  -0.40421  -0.62383
H     3.17076   1.03275  -1.20130
H     1.93958  -1.12600  -0.00688
H    -0.63994   0.50262   1.93957
H    -0.81045  -3.13350   0.09733
H    -0.85473  -1.15109  -2.16723
H    -3.49907  -0.58752  -2.21124
H    -3.44005  -0.86405  -0.45819
H    -3.04201  -2.18630  -1.57723
H    -0.11812   0.95175  -1.33807
H    -1.42777   2.37773   0.18588
H    -2.75122   1.19153   0.29170
H    -2.54650   2.16255  -1.17922
25

C     3.38644   0.40171  -0.31634
N     2.18426  -0.17480   0.24990
C     1.24517   0.60219   0.84455
O     1.44933   1.80601   1.09958
C    -0.08795   0.01748   1.08743
N    -0.25615  -1.36326   1.04607
C    -0.80126  -1.91670   0.02036
C    -1.43779  -0.77589  -1.28330
C    -2.93199  -1.10648  -1.40133
C    -1.02853   0.54447  -0.84512
C    -1.99733   1.61753  -0.38515
H     3.89834   1.03123   0.42351
H     4.06231  -0.40412  -0.62401
H     3.17073   1.03290  -1.20140
H     1.94020  -1.12636  -0.00620
H    -0.64014   0.50178   1.94142
H    -0.80429  -3.13890   0.10785
H    -0.85417  -1.15184  -2.16618
H    -3.50278  -0.58993  -2.21068
H    -3.43879  -0.86375  -0.45773
H    -3.04008  -2.18650  -1.57606
H    -0.11771   0.95164  -1.33766
H    -1.42640   2.37608   0.18723
H    -2.75061   1.19052   0.29163
H    -2.54718   2.16545  -1.17659
25

C     3.38617   0.40201  -0.31684
N     2.18403  -0.17471   0.24912
C     1.24619   0.60109   0.84700
O     1.44871   1.80548   1.09968
C    -0.07996   0.01149   1.10421
N    -0.25871  -1.35688   1.04064
C    -0.79321  -1.93603   0.03885
C    -1.44523  -0.76072  -1.30185
C    -2.93305  -1.10592  -1.40253
C    -1.03566   0.55004  -0.86241
C    -1.99709   1.61867  -0.38463
H     3.89823   1.03125   0.42345
H     4.06221  -0.40404  -0.62418
H     3.17071   1.03305  -1.20150
H     1.94081  -1.12673  -0.00553
H    -0.64034   0.50094   1.94326
H    -0.79813  -3.14429   0.11837
H    -0.85361  -1.15259  -2.16512
H    -3.50649  -0.59233  -2.21012
H    -3.43752  -0.86345  -0.45728
H    -3.03814  -2.18670  -1.57489
H    -0.11729   0.95153  -1.33725
H    -1.42503   2.37442   0.18858
H    -2.74999   1.18951   0.29156
H    -2.54786   2.16835  -1.17396
25

C     3.38590   0.40231  -0.31734
N     2.18379  -0.17462   0.24835
C     1.24720   0.59999   0.84946
O     1.44810   1.80495   1.09977
C    -0.07197   0.00549   1.12100
N    -0.26127  -1.35050   1.03521
C    -0.78516  -1.95537   0.05734
C    -1.45267  -0.74555  -1.32041
C    -2.93412  -1.10537  -1.40373
C    -1.04280   0.55560  -0.87970
C    -1.99685   1.61982  -0.38410
H     3.89813   1.03127   0.42339
H     4.06212  -0.40395  -0.62436
H     3.17068   1.03319  -1.20160
H     1.94142  -1.12709  -0.00485
H    -0.64055   0.50009   1.94510
H    -0.79197  -3.14969   0.12888
H    -0.85305  -1.15334  -2.16407
H    -3.51021  -0.59473  -2.20957
H    -3.43625  -0.86315  -0.45682
H    -3.03620  -2.18690  -1.57372
H    -0.11688   0.95142  -1.33684
H    -1.42366   2.37277   0.18993
H    -2.74938   1.18849   0.29148
H    -2.54853   2.17125  -1.17133
25

C     3.38563   0.40262  -0.31784
N     2.18356  -0.17454   0.24758
C     1.24822   0.59890   0.85192
O     1.44748   1.80442   1.09987
C    -0.06398  -0.00051   1.13779
N    -0.26382  -1.34412   1.02978
C    -0.77712  -1.97470   0.07583
C    -1.46011  -0.73038  -1.33897
C    -2.93519  -1.10481  -1.40493
C    -1.04994   0.56117  -0.89699
C    -1.99661   1.62097  -0.38357
H     3.89802   1.03129   0.42333
H     4.06202  -0.40387  -0.62454
H     3.17066   1.03334  -1.20171
H     1.94203  -1.12746  -0.00417
H    -0.64075   0.49925   1.94695
H    -0.78581  -3.15508   0.13940
H    -0.85249  -1.15408  -2.16301
H    -3.51392  -0.59714  -2.20901
H    -3.43498  -0.86286  -0.45636
H    -3.03427  -2.18710  -1.57255
H    -0.11646   0.95131  -1.33643
H    -1.42230   2.37112   0.19127
H    -2.74876   1.18748   0.29141
H    -2.54921   2.17415  -1.16870
25

C     3.38536   0.40292  -0.31834
N     2.18332  -0.17445   0.24680
C     1.24923   0.59780   0.85438
O     1.44686   1.80389   1.09997
C    -0.05599  -0.00650   1.15458
N    -0.26638  -1.33774   1.02435
C    -0.76907  -1.99404   0.09432
C    -1.46755  -0.71521  -1.35752
C    -2.93626  -1.10426  -1.40614
C    -1.05708   0.56673  -0.91428
C    -1.99637   1.62212  -0.38305
H     3.89792   1.03131   0.42328
H     4.06192  -0.40378  -0.62472
H     3.17064   1.03349  -1.20181
H     1.94265  -1.12783  -0.00349
H    -0.64095   0.49841   1.94879
H    -0.77965  -3.16048   0.14992
H    -0.85193  -1.15483  -2.16195
H    -3.51763  -0.59954  -2.20845
H    -3.43371  -0.86256  -0.45590
H    -3.03233  -2.18730  -1.57138
H    -0.11605   0.95120  -1.33602
H    -1.42093   2.36946   0.19262
H    -2.74814   1.18647   0.29134
H    -2.54989   2.17706  -1.16607
25

C     3.38509   0.40322  -0.31884
N     2.18309  -0.17436   0.24603
C     1.25025   0.59670   0.85684
O     1.44625   1.80336   1.10006
C    -0.04800  -0.01250   1.17137
N    -0.26894  -1.33136   1.01892
C    -0.76103  -2.01337   0.11281
C    -1.47499  -0.70004  -1.37608
C    -2.93733  -1.10370  -1.40734
C    -1.06421   0.57230  -0.93157
C    -1.99614   1.62326  -0.38252
H     3.89782   1.03133   0.42322
H     4.06182  -0.40370  -0.62489
H     3.17061   1.03364  -1.20191
H     1.94326  -1.12819  -0.00282
H    -0.64115   0.49756   1.95064
H    -0.77349  -3.16587   0.16044
H    -0.85137  -1.15558  -2.16090
H    -3.52134  -0.60194  -2.20789
H    -3.43244  -0.86226  -0.45545
H    -3.03040  -2.18750  -1.57022
H    -0.11563   0.95109  -1.33560
H    -1.41956   2.36781   0.19397
H    -2.74753   1.18546   0.29127
H    -2.55057   2.17996  -1.16345
25

C     3.38482   0.40353  -0.31933
N     2.18285  -0.17428   0.24525
C     1.25127   0.59560   0.85930
O     1.44563   1.80283   1.10016
C    -0.04001  -0.01850   1.18816
N    -0.27150  -1.32497   1.01349
C    -0.75298  -2.03271   0.13130
C    -1.48243  -0.68486  -1.39463
C    -2.93840  -1.10314  -1.40854
C    -1.07135   0.57787  -0.94886
C    -1.99590   1.62441  -0.38199
H     3.89771   1.03135   0.42316
H     4.06172  -0.40361  -0.62507
H     3.17059   1.03378  -1.20201
H     1.94387  -1.12856  -0.00214
H    -0.64135   0.49672   1.95248
H    -0.76733  -3.17127   0.17095
H    -0.85081  -1.15633  -2.15984
H    -3.52506  -0.60435  -2.20733
H    -3.43117  -0.86196  -0.45499
H    -3.02846  -2.18770  -1.56905
H    -0.11522   0.95098  -1.33519
H    -1.41819   2.36615   0.19531
H    -2.74691   1.18445   0.29119
H    -2.55125   2.18286  -1.16082
25

C     3.38455   0.40383  -0.31983
N     2.18262  -0.17419   0.24448
C     1.25228   0.59450   0.86176
O     1.44502   1.80230   1.10026
C    -0.03202  -0.02449   1.20495
N    -0.27406  -1.31859   1.00806
C    -0.74493  -2.05204   0.14978
C    -1.48987  -0.66969  -1.41319
C    -2.93947  -1.10259  -1.40974
C    -1.07849   0.58343  -0.96615
C    -1.99566   1.62556  -0.38147
H     3.89761   1.03137   0.42310
H     4.06162  -0.40353  -0.62525
H     3.17056   1.03393  -1.20211
H     1.94448  -1.12893  -0.00146
H    -0.64156   0.49588   1.95432
H    -0.76117  -3.17666   0.18147
H    -0.85025  -1.15708  -2.15879
H    -3.52877  -0.60675  -2.20678
H    -3.42990  -0.86166  -0.45453
H    -3.02652  -2.18790  -1.56788
H    -0.11480   0.95087  -1.33478
H    -1.41683   2.36450   0.19666
H    -2.74630   1.18344   0.29112
H    -2.55192   2.18576  -1.15819
25

C     3.38428   0.40414  -0.32033
N     2.18238  -0.17410   0.24371
C     1.25330   0.59340   0.86422
O     1.44440   1.80177   1.10035
C    -0.02402  -0.03049   1.22174
N    -0.27661  -1.31221   1.00263
C    -0.73689  -2.07138   0.16827
C    -1.49731  -0.65452  -1.43175
C    -2.94054  -1.10203  -1.41094
C    -1.08563   0.58900  -0.98344
C    -1.99542   1.62670  -0.38094
H     3.89750   1.03139   0.42305
H     4.06152  -0.40344  -0.62543
H     3.17054   1.03408  -1.20222
H     1.94510  -1.12929  -0.00078
H    -0.64176   0.49504   1.95617
H    -0.75501  -3.18206   0.19199
H    -0.84969  -1.15783  -2.15773
H    -3.53248  -0.60916  -2.20622
H    -3.42863  -0.86136  -0.45407
H    -3.02459  -2.18810  -1.56671
H    -0.11439   0.95076  -1.33437
H    -1.41546   2.36285   0.19801
H    -2.74568   1.18242   0.29105
H    -2.55260   2.18866  -1.15556
25

C     3.38401   0.40444  -0.32083
N     2.18215  -0.17402   0.24293
C     1.25431   0.59230   0.86668
O     1.44379   1.80124   1.10045
C    -0.01603  -0.03649   1.23853
N    -0.27917  -1.30583   0.99721
C    -0.72884  -2.09071   0.18676
C    -1.50475  -0.63935  -1.45030
C    -2.94161  -1.10148  -1.41215
C    -1.09276   0.59457  -1.00073
C    -1.99518   1.62785  -0.38041
H     3.89740   1.03141   0.42299
H     4.06142  -0.40336  -0.62560
H     3.17051   1.03423  -1.20232
H     1.94571  -1.12966  -0.00011
H    -0.64196   0.49419   1.95801
H    -0.74885  -3.18745   0.20251
H    -0.84913  -1.15858  -2.15667
H    -3.53620  -0.61156  -2.20566
H    -3.42736  -0.86106  -0.45362
H    -3.02265  -2.18829  -1.56554
H    -0.11397   0.95065  -1.33396
H    -1.41409   2.36119   0.19935
H    -2.74507   1.18141   0.29098
H    -2.55328   2.19156  -1.15293
25

C     3.38374   0.40474  -0.32133
N     2.18191  -0.17393   0.24216
C     1.25533   0.59120   0.86914
O     1.44317   1.80071   1.10055
C    -0.00804  -0.04249   1.25532
N    -0.28173  -1.29945   0.99178
C    -0.72080  -2.11005   0.20525
C    -1.51219  -0.62418  -1.46886
C    -2.94268  -1.10092  -1.41335
C    -1.09990   0.60013  -1.01802
C    -1.99494   1.62900  -0.37989
H     3.89730   1.03143   0.42293
H     4.06132  -0.40327  -0.62578
H     3.17049   1.03437  -1.20242
H     1.94632  -1.13002   0.00057
H    -0.64216   0.49335   1.95985
H    -0.74269  -3.19285   0.21303
H    -0.84857  -1.15932  -2.15562
H    -3.53991  -0.61396  -2.20510
H    -3.42609  -0.86076  -0.45316
H    -3.02072  -2.18849  -1.56437
H    -0.11356   0.95054  -1.33354
H    -1.41272   2.35954   0.20070
H    -2.74445   1.18040   0.29090
H    -2.55396   2.19446  -1.15030
25

C     3.38347   0.40505  -0.32183
N     2.18168  -0.17384   0.24138
C     1.25634   0.59010   0.87160
O     1.44256   1.80018   1.10064
C    -0.00005  -0.04848   1.27211
N    -0.28429  -1.29307   0.98635
C    -0.71275  -2.12938   0.22374
C    -1.51963  -0.60900  -1.48742
C    -2.94375  -1.10037  -1.41455
C    -1.10704   0.60570  -1.03531
C    -1.99470   1.63014  -0.37936
H     3.89719   1.03145   0.42287
H     4.06122  -0.40319  -0.62596
H     3.17047   1.03452  -1.20252
H     1.94693  -1.13039   0.00125
H    -0.64236   0.49251   1.96170
H    -0.73653  -3.19824   0.22354
H    -0.84801  -1.16007  -2.15456
H    -3.54362  -0.61637  -2.20455
H    -3.42483  -0.86046  -0.45270
H    -3.01878  -2.18869  -1.56320
H    -0.11314   0.95043  -1.33313
H    -1.41135   2.35788   0.20205
H    -2.74383   1.17939   0.29083
H    -2.55464   2.19736  -1.14767
25

C     3.38320   0.40535  -0.32233
N     2.18144  -0.17376   0.24061
C     1.25736   0.58900   0.87406
O     1.44194   1.79965   1.10074
C     0.00794  -0.05448   1.28890
N    -0.28685  -1.28668   0.98092
C    -0.70470  -2.14872   0.24223
C    -1.52707  -0.59383  -1.50597
C    -2.94481  -1.09981  -1.41575
C    -1.11418   0.61127  -1.05260
C    -1.99446   1.63129  -0.37883
H     3.89709   1.03146   0.42281
H     4.06112  -0.40310  -0.62614
H     3.17044   1.03467  -1.20262
H     1.94755  -1.13076   0.00193
H    -0.64257   0.49166   1.96354
H    -0.73037  -3.20364   0.23406
H    -0.84745  -1.16082  -2.15351
H    -3.54734  -0.61877  -2.20399
H    -3.42356  -0.86016  -0.45224
H    -3.01684  -2.18889  -1.56203
H    -0.11272   0.95032  -1.33272
H    -1.40999   2.35623   0.20340
H    -2.74322   1.17838   0.29076
H    -2.55531   2.20026  -1.14505
25

C     3.38293   0.40566  -0.32282
N     2.18121  -0.17367   0.23984
C     1.25837   0.58790   0.87652
O     1.44133   1.79912   1.10084
C     0.01593  -0.06048   1.30569
N    -0.28940  -1.28030   0.97549
C    -0.69666  -2.16805   0.26072
C    -1.53451  -0.57866  -1.52453
C    -2.94588  -1.09925  -1.41696
C    -1.12131   0.61683  -1.06989
C    -1.99423   1.63244  -0.37831
H     3.89698   1.03148   0.42276
H     4.06102  -0.40302  -0.62631
H     3.17042   1.03482  -1.20273
H     1.94816  -1.13112   0.00260
H    -0.64277   0.49082   1.96539
H    -0.72421  -3.20903   0.24458
H    -0.84690  -1.16157  -2.15245
H    -3.55105  -0.62118  -2.20343
H    -3.42229  -0.85986  -0.45179
H    -3.01491  -2.18909  -1.56086
H    -0.11231   0.95021  -1.33231
H    -1.40862   2.35458   0.20474
H    -2.74260   1.17737   0.29069
H    -2.55599   2.20316  -1.14242
25

C     3.38266   0.40596  -0.32332
N     2.18097  -0.17358   0.23906
C     1.25939   0.58681   0.87897
O     1.44071   1.79860   1.10093
C     0.02392  -0.06647   1.32248
N    -0.29196  -1.27392   0.97006
C    -0.68861  -2.18738   0.27921
C    -1.54195  -0.56349  -1.54309
C    -2.94695  -1.09870  -1.41816
C    -1.12845   0.62240  -1.08717
C    -1.99399   1.63358  -0.37778
H     3.89688   1.03150   0.42270
H     4.06092  -0.40293  -0.62649
H     3.17039   1.03497  -1.20283
H     1.94877  -1.13149   0.00328
H    -0.64297   0.48998   1.96723
H    -0.71804  -3.21443   0.25510
H    -0.84634  -1.16232  -2.15139
H    -3.55476  -0.62358  -2.20287
H    -3.42102  -0.85957  -0.45133
H    -3.01297  -2.18929  -1.55969
H    -0.11189   0.95010  -1.33190
H    -1.40725   2.35292   0.20609
H    -2.74199   1.17635   0.29061
H    -2.55667   2.20606  -1.13979
25

C     3.38239   0.40626  -0.32382
N     2.18074  -0.17350   0.23829
C     1.26040   0.58571   0.88143
O     1.44010   1.79807   1.10103
C     0.03191  -0.07247   1.33927
N    -0.29452  -1.26754   0.96463
C    -0.68057  -2.20672   0.29770
C    -1.54939  -0.54832  -1.56164
C    -2.94802  -1.09814  -1.41936
C    -1.13559   0.62796  -1.10446
C    -1.99375   1.63473  -0.37725
H     3.89677   1.03152   0.42264
H     4.06082  -0.40285  -0.62667
H     3.17037   1.03511  -1.20293
H     1.94938  -1.13186   0.00396
H    -0.64317   0.48914   1.96907
H    -0.71188  -3.21982   0.26562
H    -0.84578  -1.16307  -2.15034
H    -3.55848  -0.62598  -2.20232
H    -3.41975  -0.85927  -0.45087
H    -3.01104  -2.18949  -1.55852
H    -0.11148   0.94999  -1.33149
H    -1.40588   2.35127   0.20744
H    -2.74137   1.17534   0.29054
H    -2.55735   2.20897  -1.13716
25

C     3.38212   0.40657  -0.32432
N     2.18050  -0.17341   0.23751
C     1.26142   0.58461   0.88389
O     1.43948   1.79754   1.10113
C     0.03991  -0.07847   1.35605
N    -0.29708  -1.26116   0.95920
C    -0.67252  -2.22605   0.31619
C    -1.55683  -0.53315  -1.58020
C    -2.94909  -1.09759  -1.42056
C    -1.14272   0.63353  -1.12175
C    -1.99351   1.63588  -0.37673
H     3.89667   1.03154   0.42258
H     4.06072  -0.40276  -0.62684
H     3.17035   1.03526  -1.20303
H     1.95000  -1.13222   0.00464
H    -0.64337   0.48829   1.97092
H    -0.70572  -3.22522   0.27613
H    -0.84522  -1.16382  -2.14928
H    -3.56219  -0.62839  -2.20176
H    -3.41848  -0.85897  -0.45041
H    -3.00910  -2.18969  -1.55735
H    -0.11106   0.94988  -1.33107
H    -1.40452   2.34962   0.20878
H    -2.74075   1.17433   0.29047
H    -2.55803   2.21187  -1.13453
25

C     3.38185   0.40687  -0.32482
N     2.18027  -0.17332   0.23674
C     1.26244   0.58351   0.88635
O     1.43887   1.79701   1.10122
C     0.04790  -0.08447   1.37284
N    -0.29964  -1.25478   0.95377
C    -0.66447  -2.24539   0.33468
C    -1.56427  -0.51797  -1.59876
C    -2.95016  -1.09703  -1.42176
C    -1.14986   0.63910  -1.13904
C    -1.99327   1.63703  -0.37620
H     3.89657   1.03156   0.42253
H     4.06062  -0.40268  -0.62702
H     3.17032   1.03541  -1.20314
H     1.95061  -1.13259   0.00532
H    -0.64358   0.48745   1.97276
H    -0.69956  -3.23062   0.28665
H    -0.84466  -1.16456  -2.14823
H    -3.56590  -0.63079  -2.20120
H    -3.41721  -0.85867  -0.44996
H    -3.00717  -2.18989  -1.55618
H    -0.11065   0.94977  -1.33066
H    -1.40315   2.34796   0.21013
H    -2.74014   1.17332   0.29040
H    -2.55871   2.21477  -1.13190
25

C     3.38158   0.40717  -0.32532
N     2.18003  -0.17324   0.23597
C     1.26345   0.58241   0.88881
O     1.43825   1.79648   1.10132
C     0.05589  -0.09046   1.38963
N    -0.30219  -1.24839   0.94835
C    -0.65643  -2.26472   0.35317
C    -1.57171  -0.50280  -1.61731
C    -2.95123  -1.09647  -1.42297
C    -1.15700   0.64466  -1.15633
C    -1.99303   1.63817  -0.37567
H     3.89646   1.03158   0.42247
H     4.06053  -0.40259  -0.62720
H     3.17030   1.03556  -1.20324
H     1.95122  -1.13295   0.00599
H    -0.64378   0.48661   1.97460
H    -0.69340  -3.23601   0.29717
H    -0.84410  -1.16531  -2.14717
H    -3.56962  -0.63319  -2.20064
H    -3.41594  -0.85837  -0.44950
H    -3.00523  -2.19009  -1.55502
H    -0.11023   0.94966  -1.33025
H    -1.40178   2.34631   0.21148
H    -2.73952   1.17231   0.29033
H    -2.55938   2.21767  -1.12927
