14

C -0.114838638 -3.877344371 0.211363467
C -0.529262077 0.858021624 -1.119344461
C -1.828708984 2.333318526 0.930898912
O -1.919370409 4.954215102 0.380190049
C 1.970150109 0.271785476 -1.001400191
C 3.758253868 -1.172493084 -0.601124960
H 0.281339553 -2.573028018 1.696400263
H 0.220231253 -3.542336294 -1.748128870
H -0.941410211 -5.686889397 0.738620715
H -1.450517490 0.843777965 -2.953147524
H -3.792479397 1.732723407 1.088945117
H -0.896764940 1.987612143 2.748176150
H -0.217878241 5.538766673 0.147274955
H 5.677062349 -1.782930577 -0.471877312

