17

C 4.330886597 -0.836318611 1.721361202
O 1.749466400 -0.932439436 1.083675597
C 1.336232165 -1.018485035 -1.571847432
C -1.241609515 -1.120537785 -2.503901439
C -3.213674975 -0.824036676 -0.565234602
C -3.620367280 2.060934782 -0.202915919
O -1.457526995 3.372733960 0.604837327
H 5.341927112 -2.492767796 0.994871471
H 4.464855915 -0.819946610 3.774823403
H 5.230401296 0.872790911 0.968803568
H 2.095284901 0.701505908 -2.489677622
H 2.389623124 -2.597640397 -2.425447777
H -4.220505237 2.909353253 -1.984332069
H -5.021579927 -1.573807437 -1.218809610
H -2.734567514 -1.636247711 1.280923490
H -5.166413998 2.267337492 1.159293725
H -0.443554702 2.251160170 1.622190907

