17

C 4.316559203 -0.709967724 1.495997737
O 1.706163382 -0.546456677 1.017505741
C 1.118441777 -0.603342346 -1.621212464
C -1.598054947 -0.650367727 -2.332806127
C -3.384574284 -1.107338710 -0.239960296
C -3.287804868 1.782761843 -0.199955001
O -2.122546014 2.937975706 1.841364008
H 5.094148150 -2.487455115 0.768515332
H 4.584303178 -0.645697534 3.535444179
H 5.343684652 0.867014812 0.627312275
H 2.120150087 0.935183110 -2.582132756
H 1.832642525 -2.378798962 -2.442980996
H -2.263403403 2.240497522 -2.100056119
H -5.204643838 -1.897329986 -0.768610990
H -2.678182754 -1.891467432 1.526037731
H -5.118354937 2.638127004 -0.575084799
H -0.610117921 1.978004813 2.216897659

