16

C 4.995837227 0.414252741 1.194435601
C 3.335793102 -1.282824290 -0.333541801
C 0.799479988 -1.628987232 0.206608746
C -1.191658157 -1.742686592 1.604968624
C -3.668731608 -0.464420434 1.405228144
C -4.075013409 1.298926458 -0.844837610
H 4.678150738 2.408694486 0.760520014
H 4.569211656 0.153371816 3.200846116
H 6.986720618 0.011287769 0.843911115
H 0.774938228 -0.868906938 -1.886003591
H 4.113989501 -2.211100470 -1.986329415
H -3.881884136 0.591951682 3.176387863
H -5.164538861 -1.889411202 1.494866056
H -3.950749289 0.257881740 -2.624306190
H -5.932801442 2.195304911 -0.773953114
H -2.651196879 2.793475530 -0.879787150

