14

C 2.126585871 1.041919113 0.388158552
C 1.963042887 -1.867092837 0.043349316
C -0.678760182 -1.559191634 -1.111747498
O -2.659263969 -1.643502464 0.737690252
C -2.724156370 1.068762370 0.917186360
C -0.483283794 1.346573615 -0.881052170
H 2.222068403 1.716890167 2.334373466
H 3.666035649 1.907300407 -0.670154974
H 1.992958197 -3.009809147 1.756046615
H 3.352910733 -2.607009243 -1.287107732
H -1.160425198 -2.606845385 -2.821116347
H -2.445208568 1.735929441 2.855607137
H -4.509731808 1.815175994 0.188119439
H -0.662771852 2.660899621 -2.449352397

