14

C 2.059671652 1.177196045 0.223542109
C 1.755898101 -1.482472778 1.334147419
C -1.238370751 -1.111941251 -2.069704113
O -3.410566579 -1.288735240 -0.903884219
C -2.621172306 0.552635646 0.885577497
C -0.529486407 1.394718205 -0.964472486
H 2.382656743 2.643490084 1.638819534
H 3.572224826 1.320072531 -1.173504012
H 2.308987093 -1.700280703 3.309636175
H 2.711018427 -2.941563427 0.247337220
H -0.698836935 -2.371246842 -3.584144065
H -0.806311196 -1.021498543 1.936070996
H -4.145686426 1.717678391 1.617897752
H -1.088656802 3.009766591 -2.127018562

