10

C 1.040631831 -2.684073314 -0.414175168
H 2.249334808 -4.297776025 -0.785909732
H -0.901083456 -3.101143636 0.099554363
C 1.537526491 -0.279173549 -1.778305567
H 0.029156452 0.953198077 -2.401893343
N 2.114036445 -0.524988027 0.970444493
C 4.755821525 -0.380461339 0.176508527
H 6.361207929 -0.670767755 1.407215834
C 4.317617034 0.008277284 -2.270065330
H 5.443897338 0.309271746 -3.942604060

