11

C -2.401610848 0.840219346 -1.158989044
C -0.488091521 -1.215970977 -0.729478693
O -0.669214287 -3.420688765 -1.096647150
C 1.443195406 -0.766085598 2.349555337
O 1.319625081 -1.820830773 4.305587321
C 3.063092602 0.455282985 0.584841587
O 2.236889260 0.105696180 -1.670225742
H -4.062005025 0.365047409 -0.039812485
H -2.918199968 0.845662513 -3.155213897
H -1.690748716 2.685409955 -0.612258962
H 4.290404770 2.064370229 0.991222088

