11

O 2.599456026 -0.232289349 -1.992243729
C 2.102384413 0.083295386 1.118172321
C 0.643774397 -1.934202719 -0.060160244
N -1.822890726 -1.324845299 -0.303124202
C -2.094813036 1.210752819 0.481818254
C 0.134589356 2.098252886 1.258596508
H 4.242563821 -1.009318578 -1.960380679
H 1.221684186 -3.876163028 -0.340273062
H -3.078110218 -2.249628755 -1.385540675
H -3.943879096 2.078297983 0.436849046
H 0.447106518 3.957346550 2.037803571

