14

C 2.902217742 1.774953079 -1.156465088
N 2.440295771 -0.078951472 0.318870364
C 0.244156055 -1.459971752 0.245283125
N 0.517667304 -4.084319119 0.680017190
C -2.172143351 -0.564277304 -0.009845341
O -4.263993504 -1.565835287 0.164249874
N -2.393827141 2.405789712 0.032646606
H 4.640584079 2.836954292 -0.905693084
H -0.740016977 3.285229511 0.503041598
H 1.716652647 2.259117296 -2.783502387
H -0.988215817 -4.799250322 1.616229880
H 2.139955929 -4.424099209 1.625946492
H -3.004544767 3.056759393 -1.665929979
H -3.780497154 2.728884276 1.329128193

