19

C 4.483455412 0.330488986 2.475340062
C 1.758162371 1.158580240 2.084051670
C 0.500046836 -0.236699819 -0.114965986
O 0.478200374 -2.864578460 0.235546557
C -2.218604214 0.691975245 -0.291369879
C -3.249376834 -0.386211095 -3.569189699
O -3.827771979 -0.390887279 1.316569489
H 4.584944022 -1.702997241 2.789460335
H 5.643473847 0.774423977 0.825265565
H 5.316051791 1.278339592 4.105906689
H 0.642721442 0.807110966 3.788546046
H 1.675946095 3.194327656 1.720421328
H 1.533827730 0.156471421 -1.862433396
H -0.977927166 -3.177472603 1.303106362
H -2.385629982 2.741303405 -0.581453119
H -1.952881131 -1.883700827 -4.093019135
H -5.205286231 -0.994216662 -3.940229997
H -2.954358044 1.367447530 -4.587621859
H -4.106507868 -0.654124956 -1.235748132

