10

C -2.393502713 0.640311776 0.202524764
C -3.865534698 -1.201400130 -0.571084910
H -4.633415800 -2.568824114 0.746486568
H -4.353492237 -1.410519018 -2.549378190
C -1.117417772 1.909872570 2.296443734
H -2.243338745 3.018236494 3.599933162
H 0.523132316 1.014464869 3.134252734
C -0.885201782 2.867412898 -0.421299605
H -1.857935848 4.603860294 -0.905140906
H 0.908225600 2.603928139 -1.375121273

