15

C 2.805320504 -1.525605871 -0.527503612
C -0.813557030 -0.003188629 -0.049218446
C -2.710019556 -1.658768012 -0.937206686
C -0.469733116 1.506029046 2.273430403
C -0.431039083 2.749333928 -0.315015606
H 3.990541800 0.149071461 -0.561218971
H 3.166362563 -2.695769433 1.126467765
H 3.081689529 -2.611213128 -2.269868950
H 0.086289562 -1.982355548 -1.069808031
H -3.531871179 -3.035227872 0.327917523
H -3.494382037 -1.386115567 -2.802615966
H -2.140834217 1.712070685 3.435454707
H 1.298967257 1.416788204 3.287821838
H -2.080157700 3.797641865 -0.920586507
H 1.353691684 3.480073446 -0.978566422

