12

C 3.907690632 0.218175797 1.597752138
N -0.780325270 -0.512812333 -0.107874808
C -3.227840419 -0.777862900 -1.048835491
N -4.460083298 -2.787710694 -0.698085712
C 0.304133411 1.569510389 -0.567313811
O 2.616137792 2.123379724 0.182497069
H 5.763784451 0.995978831 2.005225637
H 4.058759477 -1.513298936 0.493506683
H 2.884962709 -0.192209581 3.337771834
H -3.986369247 0.857111494 -2.092363233
H -6.194108462 -2.645955988 -1.511076769
H -0.524137386 3.142734770 -1.622663679

