15

C -1.685078215 1.725105052 1.172779377
C -0.368839731 -0.227437950 -1.584781851
C 2.497515998 -0.381384923 -1.296274945
C 3.727184824 2.081998898 -1.107074923
N 4.683626277 4.019306191 -0.930595800
C -1.632097740 -1.757389436 1.196920081
N -1.359552084 -2.742408460 -1.271923745
H -1.711534097 1.675066635 3.247338216
H -0.261567727 3.128371679 0.701834494
H -3.508299869 2.352735595 0.475584823
H 3.101629957 -1.258661421 -3.067535084
H 3.208551984 -1.601813140 0.221044780
H -3.524343342 -1.863275231 1.967022291
H -0.150881875 -2.295237125 2.504119495
H -3.064198130 -2.862624068 -2.135975901

