10

N 6.431120766 -1.365795153 0.058171042
C 4.335700693 -0.813267996 0.047073153
C 1.715741554 0.029305287 0.023905772
N -0.030021040 -1.927495230 0.219492048
C -2.256458962 -1.032298290 0.011076762
C -3.910240818 0.674122605 -0.660971321
N 1.103936919 2.340928397 -0.167091908
H -4.098736218 -2.273207397 -0.011572910
H -5.233603229 1.648343413 0.565010064
H 2.614055635 3.505184316 -0.347868552

