14

C 2.677278917 -0.402563745 1.174336191
O 3.362001071 2.026768345 0.626867528
C 0.706942065 2.086504024 0.298368896
C -0.861877251 -0.701806942 1.683600241
C -2.375038615 -0.336884821 -0.780805827
C -0.383123150 1.209187824 -2.220389948
H 3.197414203 -0.991143079 3.070837418
H 3.009407637 -1.776504318 -0.315787200
H -1.687414861 -0.003733740 3.427689747
H -0.428494832 -2.712452427 1.950474867
H -4.059321784 0.784816809 -0.409819160
H -2.923929637 -2.108179466 -1.676981627
H -1.120361512 2.786918823 -3.318736113
H 0.836717816 0.062157080 -3.444663569

