11

O -1.992317750 2.122923147 -1.186132598
C -1.696107148 -1.052953960 0.352062383
C 0.887907019 -1.653867952 0.603757689
C 2.617128122 1.192456888 -0.722085744
O 4.806691459 1.066829274 -0.649548059
H -2.600199237 3.278220309 0.071359762
H -2.797002761 -1.935738575 -1.125945993
H -2.783876213 -0.563877003 2.016545286
H 1.626958384 -3.108111642 -0.636094985
H 1.665350344 -1.680391411 2.499780891
H 0.209133156 2.243639665 -1.196966568

