15

O 3.699010917 1.756186152 -0.554031039
C 2.389123386 -0.484443934 -0.205113481
H 3.620716332 -2.115785141 -0.071845875
C -0.006113396 -0.547884629 1.354443984
H -0.336941078 -2.147127099 2.582835942
C -1.207925713 1.987838456 1.957569466
H -2.597540581 1.816728064 3.467251465
H 0.215944862 3.363694152 2.535992730
C -2.441487508 2.737690362 -0.552781571
H -2.347025409 4.755724166 -0.958759522
H -4.422796715 2.137034582 -0.618583479
O -1.061068048 1.450073802 -2.487949392
C -0.116921437 -0.808208292 -1.470915667
H -0.661074254 -2.508498708 -2.471405387
H 2.823644800 2.678536076 -1.859410514

