10

O 1.356968167 0.205955411 0.630285872
C -0.709636549 1.526987375 -0.171533294
C -0.773779712 4.028646465 -0.223053974
C 1.344884559 5.727556511 0.560423529
H 2.988520986 4.644009075 1.161224288
H 1.918028061 6.960675789 -0.994262242
H 0.775662106 6.951642992 2.124015976
H -2.510954237 4.881394997 -0.893210158
H -2.316576214 0.399417219 -0.768698239
H 1.031918153 -1.567160949 0.498992633

