16

O -3.202057865 0.737389521 1.815841820
C -2.329622676 1.127639376 -0.599447451
C -0.178401598 -2.937153033 -1.086490212
C 1.982826109 -2.642510753 0.272061414
C 1.990642205 1.785039889 1.046515021
C 0.026500839 2.236038657 -0.840671293
H -4.819044844 -0.070501657 1.750193623
H -3.746318698 1.330856952 -2.067681312
H -1.874221734 -3.672704512 -0.211197341
H -0.145311416 -2.963048026 -3.132954057
H 3.794947134 -2.474136250 -0.662656030
H 2.041283709 -3.115064719 2.261218804
H 1.421665946 1.539868315 2.991527823
H 3.884132683 2.459095258 0.673219108
H 0.463050364 4.055401699 0.508856909
H 0.649761806 2.646395066 -2.746108241

