13

C -3.593610913 -1.262712256 -0.049393605
C -1.146308888 -0.158247744 -1.008577805
O 0.414644840 0.388187125 1.109821999
C 2.656164799 1.575590715 0.513987251
C 5.705475742 -1.367959400 -1.965197232
N 4.365639851 -0.039762351 -0.834004736
H -4.559988261 0.068405024 1.191923966
H -4.838929695 -1.704895357 -1.631740072
H -3.238229868 -2.997764373 1.003724346
H -1.483694940 1.591478323 -2.073724203
H -0.175101078 -1.489146724 -2.262482747
H 3.556039926 2.125561772 2.281423586
H 2.355321760 3.254473160 -0.663889984

