13

C -3.612135312 -1.225525073 -0.057813601
C -1.174067585 -0.191752607 -1.107240822
O 0.479608087 0.334742004 0.968037019
C 2.614405007 1.534797008 0.418909952
C 4.443543829 -0.463669230 -1.863272094
N 5.579297784 -0.686052881 0.041761001
H -4.522021434 0.143031689 1.185557233
H -4.904569861 -1.662626568 -1.602867456
H -3.267770010 -2.953946481 1.009098803
H -1.483238684 1.556596945 -2.171830242
H -0.227887157 -1.541227708 -2.353366045
H 3.599280696 2.097811748 2.120734429
H 2.492977896 3.041029048 -0.975843100

