8

C -3.127127219 -1.407874025 -0.351913851
C -1.914731037 0.715429051 0.067553722
C -0.692886301 3.045043053 -0.553085269
H 1.235833737 3.043640253 -1.248664051
H -1.807980579 4.719667568 -0.947551954
O -0.980912971 2.061407497 2.011970202
H -3.650746064 -2.636862683 1.193694186
H -3.607526176 -1.936884448 -2.263041256

