17

O 3.921311155 -2.298979557 2.196498349
C 2.178897194 -1.001897718 0.820069480
C 0.034697167 -2.590982268 -0.110412275
C -2.507731933 -1.234398811 0.242224849
C -2.433946707 1.605439015 -0.429434347
C 0.168419630 2.517013682 -1.338843539
C 2.259439740 1.446223806 0.260366428
H 5.258109198 -1.168200382 2.675893256
H 0.435103847 1.961393308 -3.318772471
H 0.035736101 -4.402248834 0.872458659
H 0.341565351 -2.998425872 -2.117049198
H -3.075497842 -1.449996644 2.213970171
H -3.940696419 -2.207182936 -0.879223406
H -3.849441979 2.039567347 -1.867879133
H -2.946718146 2.703274103 1.240837637
H 0.223486457 4.578651915 -1.318113886
H 3.799957667 2.644607158 0.891492548

