17

O 4.048376812 -1.708680422 2.047743209
C 2.296869111 -0.835139271 0.381471681
C 0.038549487 -2.413870011 -0.228467567
C -2.339856847 -1.024218993 0.745719774
C -2.605912710 1.484396595 -0.643722808
C -0.276967785 3.081342916 -0.436827579
C 2.203555437 1.781494499 -0.035285401
H 4.120930031 -3.518161897 1.951913969
H 2.317964804 1.872618056 -2.167937463
H 0.215238842 -4.287941059 0.624813414
H -0.144338377 -2.694106531 -2.269744455
H -2.130591826 -0.695427000 2.775707418
H -4.022279807 -2.190111150 0.484891062
H -3.160307578 1.086316206 -2.608801554
H -4.198439094 2.539013458 0.162369332
H -0.212251790 4.811406156 -1.536084837
H 3.752151716 2.854923830 0.786328703

