13

C 3.774634733 -0.729405201 0.590846457
C 1.162516672 0.441357687 0.508332680
O 0.770416019 2.443637638 1.609175740
C -0.658586675 -0.874516269 -1.019696066
C -3.842985956 0.588339300 0.484372106
N -2.863890146 0.431698617 -1.821348841
H 5.021077486 0.358773538 -0.641972392
H 3.790601973 -2.695181672 -0.025063834
H 4.509473973 -0.591270492 2.508395983
H -0.178098561 -2.609510182 -1.994794236
H -4.264865292 2.384663141 1.383619409
H -4.408616550 -1.148766306 1.391875358
H -2.753047051 1.975702578 -2.937183722

