9

C -2.419935408 0.240193431 0.393630632
N 1.342245424 1.174128377 -1.346916525
C 2.768091803 -0.439852086 -0.185228574
O 2.748408340 -2.238548553 1.207975413
H -1.497467169 -0.413218550 2.099211771
H -3.225139112 2.116714603 0.557178435
H -3.751488781 -1.158902778 -0.321456738
H -1.052135596 0.341706514 -1.360402688
H 4.551246615 0.490272549 -1.005683217

