10

C -2.556967935 0.256449498 0.391816136
N -0.142242596 -0.485672275 1.444014319
C 1.619995008 1.597750059 1.654336188
H 2.107173962 2.280414944 -0.233441421
H 3.361014464 0.953555632 2.550644306
H 0.883554867 3.218946763 2.735396858
H -0.397440698 -1.296658635 3.152772768
H -2.296845489 0.862749360 -1.565710546
H -3.479022494 1.819973574 1.413885716
H -3.839420856 -1.357489410 0.377711560

