15

C -3.316301144 0.831360385 -0.630635509
C -2.354750647 0.006046481 1.941790706
C -0.740505566 -0.182769927 -0.327988557
C 0.898585918 -2.051645304 -1.529218310
C 3.718163707 0.992463941 0.983861284
O 5.360555730 2.560789698 0.981678782
C 1.846640482 0.643200317 -1.053836973
H -4.710910331 -0.350160601 -1.550367274
H -3.535150421 2.838623147 -0.960574529
H -1.947712333 1.469993046 3.312149945
H -3.110777630 -1.723467567 2.731703010
H 1.705797267 -3.539887209 -0.375048861
H 0.569485994 -2.554845470 -3.484289709
H 3.499132940 -0.332922481 2.600911021
H 2.069607151 1.882411146 -2.667290391

