15

C -3.201734967 0.535627639 -1.046128345
C -2.880885549 -0.289022575 1.632043297
C -0.598112567 0.140818668 -0.019572555
C 1.437573490 -1.714640599 -0.721509491
C 3.712485609 0.226730436 0.363162691
O 5.171117281 1.156460307 -1.330195983
C 1.438964461 1.924264365 0.382370189
H -3.877882716 -0.832083716 -2.407578697
H -3.781321604 2.466048581 -1.397419720
H -3.247864259 1.058574403 3.124574728
H -3.275553925 -2.241425378 2.102696671
H 1.480741241 -3.481979934 0.330282061
H 1.749004645 -1.936711802 -2.734080512
H 4.440732483 -0.530648305 2.164613812
H 1.604639093 3.816351136 -0.417809224

