12

O -1.300313403 -3.581079893 3.412392073
C -0.189354621 -2.544600660 1.758501842
C 0.655949997 -2.556769494 -0.874931971
C 1.207397686 -0.283840209 0.918077763
C -0.082323311 2.188405219 0.629950711
C -1.296902863 2.965837526 -1.413552010
H -0.766811158 -2.313996209 -2.328763682
H 2.243126094 -3.733633213 -1.410864196
H 3.146369091 -0.185633202 1.591195809
H -0.013424936 3.396040254 2.288478689
H -2.226784271 4.787037816 -1.459723367
H -1.403577223 1.827253234 -3.113768197

