9

C -3.804345989 -0.083355177 -0.128787387
C -2.674364165 -0.386517797 -2.719181212
H -3.954177139 -0.028599550 -4.287694260
N 0.025884410 0.499455030 -3.161591458
C -0.397405454 -1.817103118 -3.197995105
H 0.636366765 -3.564852097 -3.434757965
H -4.568236727 1.818053310 0.119119208
H -2.388087155 -0.405951212 1.334169113
H -5.345185680 -1.427507618 0.160546880

