17

C -3.838472705 -0.608236340 -0.074131745
C -2.180277639 -0.583865336 -2.388877344
N -0.264451751 1.448850128 -2.866195839
C 0.566760952 -0.793837738 -2.336813858
C 1.977127677 -1.125405436 1.307516321
C 4.151354829 0.550215266 1.352660914
N 1.700243135 0.859975261 2.708962386
H -5.397357220 0.722136804 -0.314915149
H -2.830964957 -0.104272820 1.645620677
H -4.656419493 -2.487795492 0.174114697
H -3.179764425 -1.113721128 -4.109432672
H -0.090671176 3.176359630 -0.378635958
H 2.154602176 -1.816261113 -3.115137474
H 1.338787962 -3.047028758 1.552792227
H 5.786395950 0.224457852 2.545401488
H 4.466150490 1.752807927 -0.287044580
H 0.279644393 2.964401429 1.130953219

