16

C -2.214554871 2.966739776 -0.414269370
C -0.548695870 0.851386588 0.541601044
C -1.554873232 -1.856340635 -0.020650228
O 0.420773468 -3.554186691 0.097778436
N 1.946378791 0.873664078 -0.646184082
C 3.353206380 -1.150693506 -0.036538214
O 3.678327713 -1.874527057 2.301046275
H -1.436915582 4.814436237 0.062921190
H -4.086300497 2.823440861 0.437853757
H -2.454723679 2.861010582 -2.464326379
H -0.250527644 1.045427351 2.572872852
H -3.040298858 -2.291812147 1.357133972
H -2.431200406 -1.878924715 -1.911159720
H 1.973477029 -3.083274802 2.112146209
H 1.903738387 1.219154560 -2.524451001
H 4.716877897 -1.754931242 -1.462598132

