12

C -2.031456812 0.699378360 0.824336330
C -1.012414384 -1.747758503 -0.228973277
O -0.765941960 -1.087866329 -2.789939645
C 0.171596619 2.101503631 -0.336607636
C 2.451394152 0.832776489 0.159292820
C 1.772545360 -1.664772749 0.290491723
H -3.842907155 1.154016967 -0.031364389
H -2.109978466 0.942348196 2.879372994
H -1.999127793 -3.520564362 0.164884141
H 0.066487085 4.003557270 -1.093387372
H 4.323153667 1.589747333 -0.126261749
H 3.011530253 -3.290895647 0.274589697

