15

C -3.242020791 -0.252708029 -1.970149675
C -1.604351572 -0.079794026 0.347820288
C 0.226234270 1.893885979 0.727423086
C 2.576210241 0.396980512 1.907665654
O 3.192578734 0.780405678 4.082414937
C 3.735995843 -1.151819688 0.037584404
O 2.493537293 -2.317119718 -1.738508691
H -5.003146253 0.805855149 -1.682573043
H -3.793368854 -2.190875412 -2.422908836
H -2.312844100 0.549561497 -3.628263822
H 0.664383637 -2.118397291 -1.205022792
H -2.317460984 -0.976828819 2.050617993
H 0.740178870 2.903360554 -0.996244300
H -0.113557536 3.243803502 2.251996336
H 5.752543679 -0.954064743 -0.287780420

