13

C 1.023643344 -1.246551092 1.269797331
C -1.756746966 -1.714393385 0.883973800
O -3.071959216 0.419265939 0.440229294
C -1.855166416 2.626540923 -0.277518376
N 0.435769918 2.938119760 -0.738009634
C 2.146846721 0.807885565 -0.395110307
H 1.127511007 -0.673726726 3.260606739
H 2.044070111 -3.029354093 1.114994784
H -1.352411641 -2.883831330 -2.359753074
H -2.157993195 -3.372682899 -1.040357556
H -3.228829822 4.139741139 -0.448210269
H 3.901726997 1.548528949 0.396841371
H 2.608421851 0.063199906 -2.267740457

