14

C 4.313848618 1.228442527 -0.654313079
C 1.031435139 -1.706053003 -0.826690513
O 1.669157102 0.652908124 -0.529931059
C -1.784227307 -1.937574935 -0.623066495
C -3.371359921 0.342096856 0.134556172
O -3.406199573 2.260721504 -1.723244390
H 5.354406636 -0.511780826 -1.000715411
H 4.598224224 2.581526626 -2.179260721
H 4.858451813 2.076050380 1.140508260
H -2.384363072 -2.653617939 -2.476389994
H -2.115641069 -3.529188883 0.661266288
H -2.712480206 1.088975391 1.953354469
H -5.333792294 -0.239770964 0.388560913
H -1.729674901 2.941335677 -1.825872732

