14

C 3.646979330 0.844657084 -1.099035159
C 1.496099348 -1.475266289 0.186375222
O 1.790572686 0.559284988 1.534397104
C -1.179263311 -1.916129038 -0.732426665
C -3.131630909 0.094763945 -0.088759680
O -2.584111790 2.445280566 -1.244735122
H 5.488727500 0.070673848 -0.693739795
H 2.939155613 0.384326074 -2.987552709
H 3.533797906 2.900162835 -0.902870097
H -1.099329143 -2.242870678 -2.773709770
H -1.727693542 -3.743070505 0.079089706
H -3.277169565 0.312203505 1.965328435
H -4.987859843 -0.487458917 -0.775117790
H -1.298988403 3.232454865 -0.236041930

