11

N 4.777357958 0.540923426 -0.555333665
C 2.582529466 -0.415934956 -0.081596106
C 0.526929324 1.746380175 -0.604588715
C -1.665687074 0.832875662 -0.129748917
C -3.267804687 -1.023508418 0.594442341
O 1.733316290 -2.478240206 0.639496038
H 6.100303440 -0.819218876 -0.225141045
H 1.118570845 3.585229259 -1.243623452
H -3.958863320 1.490394756 -0.149173865
H -4.111317806 -2.266734480 -0.805536125
H -3.835334436 -1.192166361 2.560799732

