12

C 2.648359644 0.563718833 -1.329987716
C 1.149428825 1.839935129 0.376266978
O 0.595531352 3.884436683 1.084420508
C -1.027265042 -0.686723998 1.740520096
C -2.645577929 -0.979051968 -0.302736317
O -1.903592821 -1.488035867 -2.563192711
H -0.005717442 -0.956154157 -2.620562850
H 3.305365809 -1.312688596 -0.863397801
H 3.868763956 1.738102399 -2.478699031
H 0.531788944 -1.995834417 1.955876063
H -1.883644211 -0.071990024 3.492794969
H -4.658638711 -0.579189076 -0.143140121

