14

C 3.281664619 0.182982804 1.136265938
C 0.977976431 0.653243361 -0.452610780
C -0.506052537 -1.640718387 -1.410529771
C -2.747879387 -0.573790771 0.044268119
O -1.159752966 1.463830233 1.173905881
C -3.582495506 1.905734826 -0.876766989
H 2.901900759 -1.217546630 2.601321980
H 3.923088593 1.925543616 2.031295392
H 4.802293707 -0.525037746 -0.065776982
H 1.264864106 2.123282176 -1.862148595
H 0.217795244 -3.421654642 -0.669971897
H -0.791660169 -1.758487234 -3.441921992
H -3.749517249 -1.735808423 1.415728861
H -4.968270828 2.574611665 0.523347348

