14

C 3.237168031 0.360610389 1.047317172
C 1.034914786 0.551385366 -0.675946512
C -0.571488121 -1.748617743 -1.341268814
C -2.781270772 -0.693083153 0.079110587
O -1.480333041 0.761255722 1.994445959
C -2.798821981 2.057913054 -0.366507865
H 2.983527006 -1.050948432 2.518523743
H 3.644577261 2.190449014 1.900749974
H 4.867009533 -0.145914522 -0.132871085
H 1.256777496 1.965739715 -2.128318032
H 0.221786195 -3.478285520 -0.536856452
H -0.880031075 -1.970132592 -3.367176691
H -4.363623362 -1.803177556 0.774027361
H -4.506237118 2.958996717 0.381173387

