10

C 3.547843957 -0.675943432 0.380171266
C 0.907605751 -0.259970700 -0.549961684
N -0.755198564 -2.298987135 0.128884405
N -2.188172839 -1.794477333 1.882348445
H -3.290660679 -3.367478329 2.184679340
N 0.028919821 1.483801652 -1.902339120
H 1.402112515 2.744953902 -2.366864038
H 4.809595004 0.800086363 -0.299397436
H 4.240094270 -2.512489753 -0.253593763
H 3.561754288 -0.684560659 2.444468872

