12

C 3.566302859 -0.384750696 0.027034422
C 0.789627163 0.043986985 0.361094102
N -0.629739741 -2.107536298 0.739677941
N -2.951317834 -1.622441239 1.066960648
C -4.089598220 0.931131953 -1.170216682
O -5.771099259 2.248332119 -0.876074858
N -0.415537055 2.124398834 0.007123852
H 3.976435770 -0.920161772 -1.923444187
H 4.178665208 -1.929431425 1.243147298
H 4.639106767 1.311240650 0.484880291
H -3.961230221 -3.249610857 0.767434276
H 0.679038841 3.524711933 -0.717206622

