14

C -0.468556572 2.665696464 0.885962831
C 0.272214273 -0.127875102 0.933916559
C -1.279114342 -1.705334624 -0.965020846
C -3.982404696 -1.630708527 -0.413801380
N -6.098901509 -1.557689868 0.047665526
C 2.964940284 -0.469093991 0.397389978
C 5.159357761 -0.739800093 -0.081258998
H -0.132398351 3.473482365 -0.982054838
H -2.464583514 2.890373997 1.350182425
H 0.645646832 3.728428831 2.252297577
H -0.094533209 -0.878929460 2.825313069
H -0.976400607 -0.995496554 -2.879587308
H -0.659510317 -3.671519634 -0.933453274
H 7.114243967 -0.981533802 -0.490223303

