9

C 3.756951148 -1.136300426 1.586655194
C 2.051799752 -0.228410290 0.415214158
C -0.012651206 0.858675167 -1.032879948
C -4.236996820 0.294453251 0.558820796
O -2.123489233 1.496702057 0.613975419
H 5.273169446 -1.944285919 2.634343243
H 0.572513732 2.619449367 -1.927752384
H -0.689252603 -0.462898109 -2.470431555
H -4.062444689 -1.221269655 -0.922252187

