12

N -3.534570615 -1.301500850 1.456145624
C -1.312276163 -0.561871362 0.382607633
N 0.483707754 -1.917710266 -0.405551516
C 2.381110362 -0.112302720 -1.340175437
O 4.836969747 -0.666765864 -0.594866603
C 1.485338623 2.567672836 -0.717954425
N -0.771030558 2.094107091 0.196082027
H -3.891939614 -3.163315399 1.308209813
H -5.049757142 -0.184127317 1.203794942
H 5.035767896 -0.207839922 1.148217020
H 2.365237305 -0.223525045 -3.413674971
H -1.950561038 3.447631894 0.839974702

