12

N -3.529581890 -1.246128587 1.475685354
C -1.276713010 -0.338197538 0.620487699
N 0.805552887 -1.604774020 0.470461435
C 2.523572865 0.181872099 -0.501995333
O 5.026556917 -0.333881782 -0.347602516
C 1.482316630 2.682386903 -0.790151128
N -0.982830022 2.130754512 -0.147628958
H -3.607926703 -3.135012082 1.658638603
H -5.121829350 -0.430085962 0.844295674
H 5.186536161 -2.139017321 -0.223887532
H 1.970988789 0.700753268 -2.707198969
H -2.390772229 3.394588019 -0.306408546

