12

O 5.216222190 1.117665799 -2.590701719
C 3.672876949 0.994340930 -1.050155692
C 1.887517507 0.832374148 0.660992542
C -0.763256187 1.868983054 0.220525936
N -2.842021177 0.271382567 1.008626012
C -2.904503120 -2.058911528 0.532475330
O -1.190717130 -3.520723364 -0.642690167
H 0.350685415 -2.559646035 -0.875762222
H 2.452337578 0.199382585 2.523815316
H -0.989480006 2.338069468 -1.783472985
H -0.945156499 3.641682257 1.256849627
H -4.542165442 -3.164934195 1.096079911

