12

O 4.752026331 -0.544731753 -2.155897186
C 2.809625961 -0.349032396 -1.026989974
C 1.612846552 1.194727318 0.778378285
C -0.965276961 2.188919394 0.298458639
N -2.065561078 0.069964842 1.625392595
C -2.314744956 -2.068507236 0.368490925
O -1.515714081 -2.473062299 -1.846409803
H 0.971007480 -1.801422681 -1.537997732
H 2.210440125 1.119448037 2.736651523
H -1.429921630 2.329814294 -1.704807277
H -1.352287826 3.947891986 1.283791830
H -3.135300152 -3.631340183 1.448100096

