17

C 3.562913937 1.302741115 -0.600378802
C 1.891043490 -0.537941136 -0.286066703
O 2.407484664 -3.021164757 -0.761010625
C -0.832440345 -0.278912105 0.588283100
C -1.413198669 2.322954550 1.645736555
C -2.597008170 -0.906715822 -1.618004503
O -1.246221920 -2.000346421 2.613088227
H 4.149710200 -3.206746672 -1.228313156
H 5.457254754 0.919535233 -1.280771348
H 3.089931400 3.240436105 -0.182150739
H -0.143824183 2.772646667 3.203830598
H -3.344992402 2.325674036 2.361534896
H -1.253837762 3.777744674 0.195238699
H -4.551550596 -0.820249892 -0.969123725
H -2.224198994 -2.804269778 -2.331737978
H -2.341388961 0.431163503 -3.167085497
H -0.583838237 -3.615232668 2.110280747

