16

C 4.111896214 -1.659521351 -2.020554170
C 2.224175051 -1.619376236 0.138556779
C 0.424777627 0.608839881 0.054873811
C -1.506385902 0.757445543 2.166075005
C -3.275722450 3.005418104 1.963075428
H -2.223235233 4.775959939 1.983799998
H -4.612713623 3.022716600 3.531967366
H -4.339169871 2.949586656 0.199592590
H -0.468027411 0.782410224 3.957062959
H -2.558697676 -1.025202255 2.177180567
O 0.524958132 2.174480923 -1.597490411
H 3.184152728 -1.579214132 1.972267056
H 1.081199961 -3.345213255 0.164246453
H 3.147163777 -1.732863776 -3.839156861
H 5.353748313 -3.298209889 -1.873447948
H 5.272096705 0.042710702 -2.015197968

