24

C     2.50227   1.45630  -0.29593
C     2.30090  -0.03391  -0.17984
O     3.06846  -0.73864   0.48743
C     1.12957  -0.62834  -0.83778
C     1.07439  -2.11968  -1.02660
N     0.47685   0.13776  -1.77431
C    -0.66836   0.70500  -1.57122
C    -1.46351   0.49489  -0.11641
C    -2.68008  -0.32739  -0.63878
O    -3.70879   0.32695  -0.95077
O    -2.51898  -1.57061  -0.78443
C    -0.56611  -0.13382   0.82142
C     0.16592   0.62734   1.88929
O     0.05536   1.89550   1.90900
O     0.87818  -0.04208   2.69758
H     3.33269   1.76074   0.35413
H     2.72377   1.75278  -1.33594
H     1.58619   1.98266   0.01231
H     1.70521  -2.52142  -1.85659
H     1.42776  -2.58966  -0.10032
H     0.03506  -2.41907  -1.21644
H    -1.04975   1.32984  -2.57470
H    -1.78375   1.52974   0.21105
H    -0.63229  -1.22018   0.99201
24

C     2.50231   1.45656  -0.29615
C     2.30313  -0.03419  -0.18256
O     3.06944  -0.73867   0.48640
C     1.13808  -0.62981  -0.84757
C     1.07507  -2.12108  -1.02776
N     0.47544   0.13652  -1.76751
C    -0.65652   0.71074  -1.59926
C    -1.47855   0.49099  -0.09293
C    -2.68133  -0.32752  -0.63552
O    -3.70860   0.32674  -0.95305
O    -2.51765  -1.56998  -0.78582
C    -0.57770  -0.13358   0.83290
C     0.16456   0.62824   1.89239
O     0.05657   1.89625   1.91019
O     0.87966  -0.04175   2.69706
H     3.33217   1.76092   0.35468
H     2.72429   1.75336  -1.33574
H     1.58582   1.98227   0.01190
H     1.70492  -2.52413  -1.85610
H     1.42711  -2.58905  -0.09984
H     0.03489  -2.41834  -1.21641
H    -1.04194   1.32996  -2.58587
H    -1.78521   1.52952   0.21317
H    -0.63204  -1.22014   0.99251
24

C     2.50235   1.45682  -0.29637
C     2.30536  -0.03446  -0.18528
O     3.07041  -0.73869   0.48538
C     1.14659  -0.63128  -0.85736
C     1.07575  -2.12248  -1.02892
N     0.47402   0.13528  -1.76071
C    -0.64467   0.71649  -1.62731
C    -1.49359   0.48708  -0.06946
C    -2.68259  -0.32765  -0.63225
O    -3.70842   0.32652  -0.95532
O    -2.51632  -1.56935  -0.78722
C    -0.58928  -0.13334   0.84437
C     0.16320   0.62913   1.89549
O     0.05778   1.89699   1.91137
O     0.88115  -0.04142   2.69654
H     3.33165   1.76110   0.35522
H     2.72481   1.75393  -1.33555
H     1.58545   1.98187   0.01149
H     1.70462  -2.52685  -1.85560
H     1.42645  -2.58845  -0.09936
H     0.03472  -2.41760  -1.21637
H    -1.03414   1.33008  -2.59704
H    -1.78666   1.52931   0.21529
H    -0.63179  -1.22010   0.99301
24

C     2.50239   1.45709  -0.29658
C     2.30759  -0.03474  -0.18799
O     3.07138  -0.73871   0.48435
C     1.15510  -0.63274  -0.86714
C     1.07643  -2.12388  -1.03007
N     0.47261   0.13404  -1.75390
C    -0.63283   0.72224  -1.65535
C    -1.50863   0.48318  -0.04599
C    -2.68385  -0.32778  -0.62898
O    -3.70823   0.32630  -0.95759
O    -2.51498  -1.56873  -0.78862
C    -0.60087  -0.13310   0.85585
C     0.16183   0.63003   1.89859
O     0.05898   1.89773   1.91256
O     0.88264  -0.04110   2.69603
H     3.33114   1.76127   0.35577
H     2.72533   1.75450  -1.33535
H     1.58508   1.98147   0.01108
H     1.70433  -2.52956  -1.85511
H     1.42580  -2.58784  -0.09889
H     0.03456  -2.41687  -1.21634
H    -1.02633   1.33020  -2.60821
H    -1.78812   1.52910   0.21740
H    -0.63153  -1.22006   0.99351
24

C     2.50243   1.45735  -0.29680
C     2.30981  -0.03502  -0.19071
O     3.07236  -0.73873   0.48332
C     1.16361  -0.63421  -0.87693
C     1.07711  -2.12528  -1.03123
N     0.47120   0.13280  -1.74710
C    -0.62099   0.72798  -1.68339
C    -1.52366   0.47928  -0.02251
C    -2.68510  -0.32791  -0.62571
O    -3.70805   0.32608  -0.95986
O    -2.51365  -1.56810  -0.79002
C    -0.61245  -0.13285   0.86733
C     0.16047   0.63092   1.90168
O     0.06019   1.89848   1.91375
O     0.88412  -0.04077   2.69551
H     3.33062   1.76145   0.35631
H     2.72585   1.75507  -1.33516
H     1.58471   1.98108   0.01067
H     1.70403  -2.53227  -1.85461
H     1.42514  -2.58724  -0.09841
H     0.03439  -2.41614  -1.21630
H    -1.01853   1.33033  -2.61938
H    -1.78958   1.52889   0.21952
H    -0.63128  -1.22002   0.99401
24

C     2.50248   1.45762  -0.29702
C     2.31204  -0.03530  -0.19342
O     3.07333  -0.73875   0.48229
C     1.17212  -0.63568  -0.88672
C     1.07779  -2.12668  -1.03239
N     0.46978   0.13157  -1.74030
C    -0.60915   0.73373  -1.71143
C    -1.53870   0.47538   0.00096
C    -2.68636  -0.32804  -0.62244
O    -3.70787   0.32587  -0.96214
O    -2.51232  -1.56748  -0.79142
C    -0.62404  -0.13261   0.87881
C     0.15911   0.63181   1.90478
O     0.06140   1.89922   1.91493
O     0.88561  -0.04044   2.69499
H     3.33011   1.76163   0.35686
H     2.72637   1.75564  -1.33496
H     1.58434   1.98068   0.01025
H     1.70374  -2.53498  -1.85412
H     1.42449  -2.58664  -0.09793
H     0.03423  -2.41540  -1.21627
H    -1.01072   1.33045  -2.63055
H    -1.79103   1.52868   0.22164
H    -0.63103  -1.21999   0.99451
24

C     2.50252   1.45788  -0.29724
C     2.31427  -0.03558  -0.19614
O     3.07430  -0.73877   0.48126
C     1.18062  -0.63715  -0.89651
C     1.07846  -2.12808  -1.03354
N     0.46837   0.13033  -1.73350
C    -0.59731   0.73948  -1.73947
C    -1.55374   0.47147   0.02444
C    -2.68762  -0.32817  -0.61918
O    -3.70768   0.32565  -0.96441
O    -2.51099  -1.56685  -0.79282
C    -0.63562  -0.13237   0.89028
C     0.15774   0.63271   1.90788
O     0.06261   1.89996   1.91612
O     0.88710  -0.04012   2.69447
H     3.32959   1.76180   0.35740
H     2.72689   1.75621  -1.33477
H     1.58397   1.98028   0.00984
H     1.70344  -2.53770  -1.85362
H     1.42384  -2.58603  -0.09745
H     0.03406  -2.41467  -1.21623
H    -1.00291   1.33057  -2.64172
H    -1.79249   1.52847   0.22375
H    -0.63077  -1.21995   0.99501
24

C     2.50256   1.45814  -0.29745
C     2.31650  -0.03586  -0.19885
O     3.07528  -0.73880   0.48023
C     1.18913  -0.63861  -0.90630
C     1.07914  -2.12947  -1.03470
N     0.46695   0.12909  -1.72669
C    -0.58547   0.74522  -1.76751
C    -1.56878   0.46757   0.04791
C    -2.68888  -0.32830  -0.61591
O    -3.70750   0.32543  -0.96668
O    -2.50965  -1.56622  -0.79422
C    -0.64720  -0.13213   0.90176
C     0.15638   0.63360   1.91098
O     0.06382   1.90071   1.91730
O     0.88858  -0.03979   2.69396
H     3.32907   1.76198   0.35795
H     2.72741   1.75678  -1.33458
H     1.58360   1.97989   0.00943
H     1.70315  -2.54041  -1.85313
H     1.42318  -2.58543  -0.09698
H     0.03390  -2.41394  -1.21620
H    -0.99511   1.33069  -2.65289
H    -1.79394   1.52825   0.22587
H    -0.63052  -1.21991   0.99551
24

C     2.50260   1.45841  -0.29767
C     2.31873  -0.03614  -0.20157
O     3.07625  -0.73882   0.47921
C     1.19764  -0.64008  -0.91609
C     1.07982  -2.13087  -1.03586
N     0.46554   0.12785  -1.71989
C    -0.57362   0.75097  -1.79555
C    -1.58382   0.46367   0.07139
C    -2.69013  -0.32843  -0.61264
O    -3.70731   0.32521  -0.96895
O    -2.50832  -1.56560  -0.79562
C    -0.65879  -0.13189   0.91324
C     0.15502   0.63450   1.91407
O     0.06503   1.90145   1.91849
O     0.89007  -0.03946   2.69344
H     3.32856   1.76216   0.35849
H     2.72793   1.75735  -1.33438
H     1.58323   1.97949   0.00902
H     1.70286  -2.54312  -1.85263
H     1.42253  -2.58482  -0.09650
H     0.03373  -2.41320  -1.21616
H    -0.98730   1.33081  -2.66407
H    -1.79540   1.52804   0.22799
H    -0.63027  -1.21987   0.99601
24

C     2.50264   1.45867  -0.29789
C     2.32096  -0.03642  -0.20429
O     3.07722  -0.73884   0.47818
C     1.20615  -0.64155  -0.92588
C     1.08050  -2.13227  -1.03702
N     0.46413   0.12661  -1.71309
C    -0.56178   0.75672  -1.82359
C    -1.59885   0.45977   0.09486
C    -2.69139  -0.32856  -0.60937
O    -3.70713   0.32500  -0.97123
O    -2.50699  -1.56497  -0.79702
C    -0.67037  -0.13165   0.92472
C     0.15366   0.63539   1.91717
O     0.06624   1.90219   1.91968
O     0.89156  -0.03914   2.69292
H     3.32804   1.76233   0.35904
H     2.72845   1.75792  -1.33419
H     1.58286   1.97910   0.00861
H     1.70256  -2.54584  -1.85214
H     1.42187  -2.58422  -0.09602
H     0.03357  -2.41247  -1.21613
H    -0.97950   1.33093  -2.67524
H    -1.79686   1.52783   0.23011
H    -0.63002  -1.21983   0.99651
24

C     2.50268   1.45893  -0.29810
C     2.32319  -0.03669  -0.20700
O     3.07820  -0.73886   0.47715
C     1.21466  -0.64301  -0.93566
C     1.08118  -2.13367  -1.03817
N     0.46271   0.12538  -1.70629
C    -0.54994   0.76246  -1.85163
C    -1.61389   0.45586   0.11834
C    -2.69265  -0.32869  -0.60610
O    -3.70695   0.32478  -0.97350
O    -2.50566  -1.56434  -0.79842
C    -0.68196  -0.13141   0.93619
C     0.15229   0.63629   1.92027
O     0.06745   1.90294   1.92086
O     0.89304  -0.03881   2.69241
H     3.32752   1.76251   0.35958
H     2.72897   1.75849  -1.33399
H     1.58249   1.97870   0.00819
H     1.70227  -2.54855  -1.85164
H     1.42122  -2.58361  -0.09555
H     0.03340  -2.41174  -1.21609
H    -0.97169   1.33105  -2.68641
H    -1.79831   1.52762   0.23222
H    -0.62976  -1.21979   0.99700
24

C     2.50272   1.45920  -0.29832
C     2.32542  -0.03697  -0.20972
O     3.07917  -0.73888   0.47612
C     1.22317  -0.64448  -0.94545
C     1.08186  -2.13507  -1.03933
N     0.46130   0.12414  -1.69948
C    -0.53810   0.76821  -1.87968
C    -1.62893   0.45196   0.14181
C    -2.69391  -0.32882  -0.60284
O    -3.70676   0.32456  -0.97577
O    -2.50432  -1.56372  -0.79981
C    -0.69354  -0.13117   0.94767
C     0.15093   0.63718   1.92337
O     0.06866   1.90368   1.92205
O     0.89453  -0.03848   2.69189
H     3.32701   1.76269   0.36012
H     2.72949   1.75906  -1.33380
H     1.58212   1.97830   0.00778
H     1.70197  -2.55126  -1.85115
H     1.42056  -2.58301  -0.09507
H     0.03324  -2.41100  -1.21606
H    -0.96389   1.33117  -2.69758
H    -1.79977   1.52741   0.23434
H    -0.62951  -1.21975   0.99750
24

C     2.50276   1.45946  -0.29854
C     2.32765  -0.03725  -0.21243
O     3.08014  -0.73891   0.47509
C     1.23168  -0.64595  -0.95524
C     1.08254  -2.13647  -1.04049
N     0.45989   0.12290  -1.69268
C    -0.52626   0.77396  -1.90772
C    -1.64397   0.44806   0.16529
C    -2.69516  -0.32895  -0.59957
O    -3.70658   0.32434  -0.97804
O    -2.50299  -1.56309  -0.80121
C    -0.70513  -0.13093   0.95915
C     0.14957   0.63807   1.92646
O     0.06987   1.90442   1.92324
O     0.89601  -0.03816   2.69137
H     3.32649   1.76286   0.36067
H     2.73001   1.75963  -1.33360
H     1.58175   1.97791   0.00737
H     1.70168  -2.55397  -1.85065
H     1.41991  -2.58241  -0.09459
H     0.03307  -2.41027  -1.21602
H    -0.95608   1.33130  -2.70875
H    -1.80122   1.52719   0.23646
H    -0.62926  -1.21971   0.99800
24

C     2.50281   1.45972  -0.29876
C     2.32988  -0.03753  -0.21515
O     3.08112  -0.73893   0.47406
C     1.24019  -0.64742  -0.96503
C     1.08321  -2.13787  -1.04165
N     0.45847   0.12166  -1.68588
C    -0.51442   0.77970  -1.93576
C    -1.65900   0.44415   0.18876
C    -2.69642  -0.32908  -0.59630
O    -3.70639   0.32413  -0.98032
O    -2.50166  -1.56247  -0.80261
C    -0.71671  -0.13068   0.97063
C     0.14820   0.63897   1.92956
O     0.07108   1.90516   1.92442
O     0.89750  -0.03783   2.69085
H     3.32597   1.76304   0.36121
H     2.73053   1.76020  -1.33341
H     1.58138   1.97751   0.00696
H     1.70138  -2.55669  -1.85016
H     1.41925  -2.58180  -0.09411
H     0.03290  -2.40954  -1.21599
H    -0.94828   1.33142  -2.71992
H    -1.80268   1.52698   0.23857
H    -0.62900  -1.21967   0.99850
24

C     2.50285   1.45999  -0.29897
C     2.33210  -0.03781  -0.21786
O     3.08209  -0.73895   0.47304
C     1.24870  -0.64888  -0.97482
C     1.08389  -2.13927  -1.04280
N     0.45706   0.12042  -1.67908
C    -0.50257   0.78545  -1.96380
C    -1.67404   0.44025   0.21224
C    -2.69768  -0.32921  -0.59303
O    -3.70621   0.32391  -0.98259
O    -2.50033  -1.56184  -0.80401
C    -0.72830  -0.13044   0.98210
C     0.14684   0.63986   1.93266
O     0.07229   1.90591   1.92561
O     0.89899  -0.03750   2.69034
H     3.32546   1.76321   0.36176
H     2.73105   1.76077  -1.33321
H     1.58101   1.97711   0.00655
H     1.70109  -2.55940  -1.84966
H     1.41860  -2.58120  -0.09364
H     0.03274  -2.40880  -1.21595
H    -0.94047   1.33154  -2.73109
H    -1.80414   1.52677   0.24069
H    -0.62875  -1.21964   0.99900
24

C     2.50289   1.46025  -0.29919
C     2.33433  -0.03809  -0.22058
O     3.08306  -0.73897   0.47201
C     1.25721  -0.65035  -0.98461
C     1.08457  -2.14067  -1.04396
N     0.45564   0.11919  -1.67228
C    -0.49073   0.79120  -1.99184
C    -1.68908   0.43635   0.23571
C    -2.69893  -0.32934  -0.58976
O    -3.70602   0.32369  -0.98486
O    -2.49900  -1.56121  -0.80541
C    -0.73988  -0.13020   0.99358
C     0.14548   0.64076   1.93576
O     0.07350   1.90665   1.92680
O     0.90047  -0.03718   2.68982
H     3.32494   1.76339   0.36230
H     2.73157   1.76135  -1.33302
H     1.58064   1.97672   0.00613
H     1.70079  -2.56211  -1.84917
H     1.41795  -2.58059  -0.09316
H     0.03257  -2.40807  -1.21592
H    -0.93267   1.33166  -2.74226
H    -1.80559   1.52656   0.24281
H    -0.62850  -1.21960   0.99950
24

C     2.50293   1.46051  -0.29941
C     2.33656  -0.03837  -0.22330
O     3.08404  -0.73899   0.47098
C     1.26572  -0.65182  -0.99440
C     1.08525  -2.14207  -1.04512
N     0.45423   0.11795  -1.66547
C    -0.47889   0.79695  -2.01988
C    -1.70412   0.43245   0.25918
C    -2.70019  -0.32947  -0.58650
O    -3.70584   0.32347  -0.98713
O    -2.49766  -1.56059  -0.80681
C    -0.75147  -0.12996   1.00506
C     0.14412   0.64165   1.93885
O     0.07471   1.90739   1.92798
O     0.90196  -0.03685   2.68930
H     3.32442   1.76357   0.36285
H     2.73210   1.76192  -1.33283
H     1.58027   1.97632   0.00572
H     1.70050  -2.56482  -1.84867
H     1.41729  -2.57999  -0.09268
H     0.03241  -2.40733  -1.21588
H    -0.92486   1.33178  -2.75343
H    -1.80705   1.52635   0.24492
H    -0.62824  -1.21956   1.00000
24

C     2.50297   1.46078  -0.29962
C     2.33879  -0.03865  -0.22601
O     3.08501  -0.73901   0.46995
C     1.27423  -0.65329  -1.00418
C     1.08593  -2.14347  -1.04628
N     0.45282   0.11671  -1.65867
C    -0.46705   0.80269  -2.04792
C    -1.71915   0.42854   0.28266
C    -2.70145  -0.32960  -0.58323
O    -3.70566   0.32326  -0.98941
O    -2.49633  -1.55996  -0.80821
C    -0.76305  -0.12972   1.01654
C     0.14275   0.64255   1.94195
O     0.07592   1.90814   1.92917
O     0.90345  -0.03652   2.68878
H     3.32391   1.76374   0.36339
H     2.73262   1.76249  -1.33263
H     1.57990   1.97592   0.00531
H     1.70021  -2.56754  -1.84818
H     1.41664  -2.57938  -0.09220
H     0.03224  -2.40660  -1.21585
H    -0.91706   1.33190  -2.76460
H    -1.80850   1.52614   0.24704
H    -0.62799  -1.21952   1.00050
24

C     2.50301   1.46104  -0.29984
C     2.34102  -0.03893  -0.22873
O     3.08599  -0.73904   0.46892
C     1.28274  -0.65475  -1.01397
C     1.08661  -2.14487  -1.04743
N     0.45140   0.11547  -1.65187
C    -0.45521   0.80844  -2.07596
C    -1.73419   0.42464   0.30613
C    -2.70271  -0.32973  -0.57996
O    -3.70547   0.32304  -0.99168
O    -2.49500  -1.55934  -0.80961
C    -0.77464  -0.12948   1.02801
C     0.14139   0.64344   1.94505
O     0.07713   1.90888   1.93036
O     0.90493  -0.03620   2.68827
H     3.32339   1.76392   0.36394
H     2.73314   1.76306  -1.33244
H     1.57953   1.97553   0.00490
H     1.69991  -2.57025  -1.84768
H     1.41598  -2.57878  -0.09173
H     0.03208  -2.40587  -1.21581
H    -0.90925   1.33202  -2.77577
H    -1.80996   1.52592   0.24916
H    -0.62774  -1.21948   1.00100
24

C     2.50305   1.46131  -0.30006
C     2.34325  -0.03920  -0.23144
O     3.08696  -0.73906   0.46789
C     1.29124  -0.65622  -1.02376
C     1.08729  -2.14627  -1.04859
N     0.44999   0.11423  -1.64507
C    -0.44337   0.81419  -2.10400
C    -1.74923   0.42074   0.32961
C    -2.70396  -0.32986  -0.57669
O    -3.70529   0.32282  -0.99395
O    -2.49367  -1.55871  -0.81101
C    -0.78622  -0.12924   1.03949
C     0.14003   0.64433   1.94815
O     0.07834   1.90962   1.93154
O     0.90642  -0.03587   2.68775
H     3.32287   1.76410   0.36448
H     2.73366   1.76363  -1.33224
H     1.57916   1.97513   0.00449
H     1.69962  -2.57296  -1.84719
H     1.41533  -2.57818  -0.09125
H     0.03191  -2.40513  -1.21578
H    -0.90145   1.33215  -2.78694
H    -1.81142   1.52571   0.25127
H    -0.62749  -1.21944   1.00150
24

C     2.50310   1.46157  -0.30028
C     2.34548  -0.03948  -0.23416
O     3.08793  -0.73908   0.46686
C     1.29975  -0.65769  -1.03355
C     1.08796  -2.14767  -1.04975
N     0.44858   0.11300  -1.63826
C    -0.43152   0.81993  -2.13204
C    -1.76427   0.41684   0.35308
C    -2.70522  -0.32999  -0.57342
O    -3.70510   0.32260  -0.99622
O    -2.49233  -1.55808  -0.81240
C    -0.79780  -0.12900   1.05097
C     0.13867   0.64523   1.95124
O     0.07955   1.91037   1.93273
O     0.90791  -0.03554   2.68723
H     3.32236   1.76427   0.36502
H     2.73418   1.76420  -1.33205
H     1.57879   1.97473   0.00407
H     1.69932  -2.57567  -1.84669
H     1.41467  -2.57757  -0.09077
H     0.03175  -2.40440  -1.21574
H    -0.89364   1.33227  -2.79811
H    -1.81287   1.52550   0.25339
H    -0.62723  -1.21940   1.00200
24

C     2.50305   1.46131  -0.30006
C     2.34325  -0.03920  -0.23144
O     3.08696  -0.73906   0.46789
C     1.29124  -0.65622  -1.02376
C     1.08729  -2.14627  -1.04859
N     0.44999   0.11423  -1.64507
C    -0.44337   0.81419  -2.10400
C    -1.74923   0.42074   0.32961
C    -2.70396  -0.32986  -0.57669
O    -3.70529   0.32282  -0.99395
O    -2.49367  -1.55871  -0.81101
C    -0.78622  -0.12924   1.03949
C     0.14003   0.64433   1.94815
O     0.07834   1.90962   1.93154
O     0.90642  -0.03587   2.68775
H     3.32287   1.76410   0.36448
H     2.73366   1.76363  -1.33224
H     1.57916   1.97513   0.00449
H     1.69962  -2.57296  -1.84719
H     1.41533  -2.57818  -0.09125
H     0.03191  -2.40513  -1.21578
H    -0.90145   1.33215  -2.78694
H    -1.81142   1.52571   0.25127
H    -0.62749  -1.21944   1.00150
24

C     2.50301   1.46104  -0.29984
C     2.34102  -0.03893  -0.22873
O     3.08599  -0.73904   0.46892
C     1.28274  -0.65475  -1.01397
C     1.08661  -2.14487  -1.04743
N     0.45140   0.11547  -1.65187
C    -0.45521   0.80844  -2.07596
C    -1.73419   0.42464   0.30613
C    -2.70271  -0.32973  -0.57996
O    -3.70547   0.32304  -0.99168
O    -2.49500  -1.55934  -0.80961
C    -0.77464  -0.12948   1.02801
C     0.14139   0.64344   1.94505
O     0.07713   1.90888   1.93036
O     0.90493  -0.03620   2.68827
H     3.32339   1.76392   0.36394
H     2.73314   1.76306  -1.33244
H     1.57953   1.97553   0.00490
H     1.69991  -2.57025  -1.84768
H     1.41598  -2.57878  -0.09173
H     0.03208  -2.40587  -1.21581
H    -0.90925   1.33202  -2.77577
H    -1.80996   1.52592   0.24916
H    -0.62774  -1.21948   1.00100
24

C     2.50297   1.46078  -0.29962
C     2.33879  -0.03865  -0.22601
O     3.08501  -0.73901   0.46995
C     1.27423  -0.65329  -1.00418
C     1.08593  -2.14347  -1.04628
N     0.45282   0.11671  -1.65867
C    -0.46705   0.80269  -2.04792
C    -1.71915   0.42854   0.28266
C    -2.70145  -0.32960  -0.58323
O    -3.70566   0.32326  -0.98941
O    -2.49633  -1.55996  -0.80821
C    -0.76305  -0.12972   1.01654
C     0.14275   0.64255   1.94195
O     0.07592   1.90814   1.92917
O     0.90345  -0.03652   2.68878
H     3.32391   1.76374   0.36339
H     2.73262   1.76249  -1.33263
H     1.57990   1.97592   0.00531
H     1.70021  -2.56754  -1.84818
H     1.41664  -2.57938  -0.09220
H     0.03224  -2.40660  -1.21585
H    -0.91706   1.33190  -2.76460
H    -1.80850   1.52614   0.24704
H    -0.62799  -1.21952   1.00050
24

C     2.50293   1.46051  -0.29941
C     2.33656  -0.03837  -0.22330
O     3.08404  -0.73899   0.47098
C     1.26572  -0.65182  -0.99440
C     1.08525  -2.14207  -1.04512
N     0.45423   0.11795  -1.66547
C    -0.47889   0.79695  -2.01988
C    -1.70412   0.43245   0.25918
C    -2.70019  -0.32947  -0.58650
O    -3.70584   0.32347  -0.98713
O    -2.49766  -1.56059  -0.80681
C    -0.75147  -0.12996   1.00506
C     0.14412   0.64165   1.93885
O     0.07471   1.90739   1.92798
O     0.90196  -0.03685   2.68930
H     3.32442   1.76357   0.36285
H     2.73210   1.76192  -1.33283
H     1.58027   1.97632   0.00572
H     1.70050  -2.56482  -1.84867
H     1.41729  -2.57999  -0.09268
H     0.03241  -2.40733  -1.21588
H    -0.92486   1.33178  -2.75343
H    -1.80705   1.52635   0.24492
H    -0.62824  -1.21956   1.00000
24

C     2.50289   1.46025  -0.29919
C     2.33433  -0.03809  -0.22058
O     3.08306  -0.73897   0.47201
C     1.25721  -0.65035  -0.98461
C     1.08457  -2.14067  -1.04396
N     0.45564   0.11919  -1.67228
C    -0.49073   0.79120  -1.99184
C    -1.68908   0.43635   0.23571
C    -2.69893  -0.32934  -0.58976
O    -3.70602   0.32369  -0.98486
O    -2.49900  -1.56121  -0.80541
C    -0.73988  -0.13020   0.99358
C     0.14548   0.64076   1.93576
O     0.07350   1.90665   1.92680
O     0.90047  -0.03718   2.68982
H     3.32494   1.76339   0.36230
H     2.73157   1.76135  -1.33302
H     1.58064   1.97672   0.00613
H     1.70079  -2.56211  -1.84917
H     1.41795  -2.58059  -0.09316
H     0.03257  -2.40807  -1.21592
H    -0.93267   1.33166  -2.74226
H    -1.80559   1.52656   0.24281
H    -0.62850  -1.21960   0.99950
24

C     2.50285   1.45999  -0.29897
C     2.33210  -0.03781  -0.21786
O     3.08209  -0.73895   0.47304
C     1.24870  -0.64888  -0.97482
C     1.08389  -2.13927  -1.04280
N     0.45706   0.12042  -1.67908
C    -0.50257   0.78545  -1.96380
C    -1.67404   0.44025   0.21224
C    -2.69768  -0.32921  -0.59303
O    -3.70621   0.32391  -0.98259
O    -2.50033  -1.56184  -0.80401
C    -0.72830  -0.13044   0.98210
C     0.14684   0.63986   1.93266
O     0.07229   1.90591   1.92561
O     0.89899  -0.03750   2.69034
H     3.32546   1.76321   0.36176
H     2.73105   1.76077  -1.33321
H     1.58101   1.97711   0.00655
H     1.70109  -2.55940  -1.84966
H     1.41860  -2.58120  -0.09364
H     0.03274  -2.40880  -1.21595
H    -0.94047   1.33154  -2.73109
H    -1.80414   1.52677   0.24069
H    -0.62875  -1.21964   0.99900
24

C     2.50281   1.45972  -0.29876
C     2.32988  -0.03753  -0.21515
O     3.08112  -0.73893   0.47406
C     1.24019  -0.64742  -0.96503
C     1.08321  -2.13787  -1.04165
N     0.45847   0.12166  -1.68588
C    -0.51442   0.77970  -1.93576
C    -1.65900   0.44415   0.18876
C    -2.69642  -0.32908  -0.59630
O    -3.70639   0.32413  -0.98032
O    -2.50166  -1.56247  -0.80261
C    -0.71671  -0.13068   0.97063
C     0.14820   0.63897   1.92956
O     0.07108   1.90516   1.92442
O     0.89750  -0.03783   2.69085
H     3.32597   1.76304   0.36121
H     2.73053   1.76020  -1.33341
H     1.58138   1.97751   0.00696
H     1.70138  -2.55669  -1.85016
H     1.41925  -2.58180  -0.09411
H     0.03290  -2.40954  -1.21599
H    -0.94828   1.33142  -2.71992
H    -1.80268   1.52698   0.23857
H    -0.62900  -1.21967   0.99850
24

C     2.50276   1.45946  -0.29854
C     2.32765  -0.03725  -0.21243
O     3.08014  -0.73891   0.47509
C     1.23168  -0.64595  -0.95524
C     1.08254  -2.13647  -1.04049
N     0.45989   0.12290  -1.69268
C    -0.52626   0.77396  -1.90772
C    -1.64397   0.44806   0.16529
C    -2.69516  -0.32895  -0.59957
O    -3.70658   0.32434  -0.97804
O    -2.50299  -1.56309  -0.80121
C    -0.70513  -0.13093   0.95915
C     0.14957   0.63807   1.92646
O     0.06987   1.90442   1.92324
O     0.89601  -0.03816   2.69137
H     3.32649   1.76286   0.36067
H     2.73001   1.75963  -1.33360
H     1.58175   1.97791   0.00737
H     1.70168  -2.55397  -1.85065
H     1.41991  -2.58241  -0.09459
H     0.03307  -2.41027  -1.21602
H    -0.95608   1.33130  -2.70875
H    -1.80122   1.52719   0.23646
H    -0.62926  -1.21971   0.99800
24

C     2.50272   1.45920  -0.29832
C     2.32542  -0.03697  -0.20972
O     3.07917  -0.73888   0.47612
C     1.22317  -0.64448  -0.94545
C     1.08186  -2.13507  -1.03933
N     0.46130   0.12414  -1.69948
C    -0.53810   0.76821  -1.87968
C    -1.62893   0.45196   0.14181
C    -2.69391  -0.32882  -0.60284
O    -3.70676   0.32456  -0.97577
O    -2.50432  -1.56372  -0.79981
C    -0.69354  -0.13117   0.94767
C     0.15093   0.63718   1.92337
O     0.06866   1.90368   1.92205
O     0.89453  -0.03848   2.69189
H     3.32701   1.76269   0.36012
H     2.72949   1.75906  -1.33380
H     1.58212   1.97830   0.00778
H     1.70197  -2.55126  -1.85115
H     1.42056  -2.58301  -0.09507
H     0.03324  -2.41100  -1.21606
H    -0.96389   1.33117  -2.69758
H    -1.79977   1.52741   0.23434
H    -0.62951  -1.21975   0.99750
24

C     2.50268   1.45893  -0.29810
C     2.32319  -0.03669  -0.20700
O     3.07820  -0.73886   0.47715
C     1.21466  -0.64301  -0.93566
C     1.08118  -2.13367  -1.03817
N     0.46271   0.12538  -1.70629
C    -0.54994   0.76246  -1.85163
C    -1.61389   0.45586   0.11834
C    -2.69265  -0.32869  -0.60610
O    -3.70695   0.32478  -0.97350
O    -2.50566  -1.56434  -0.79842
C    -0.68196  -0.13141   0.93619
C     0.15229   0.63629   1.92027
O     0.06745   1.90294   1.92086
O     0.89304  -0.03881   2.69241
H     3.32752   1.76251   0.35958
H     2.72897   1.75849  -1.33399
H     1.58249   1.97870   0.00819
H     1.70227  -2.54855  -1.85164
H     1.42122  -2.58361  -0.09555
H     0.03340  -2.41174  -1.21609
H    -0.97169   1.33105  -2.68641
H    -1.79831   1.52762   0.23222
H    -0.62976  -1.21979   0.99700
24

C     2.50264   1.45867  -0.29789
C     2.32096  -0.03642  -0.20429
O     3.07722  -0.73884   0.47818
C     1.20615  -0.64155  -0.92588
C     1.08050  -2.13227  -1.03702
N     0.46413   0.12661  -1.71309
C    -0.56178   0.75672  -1.82359
C    -1.59885   0.45977   0.09486
C    -2.69139  -0.32856  -0.60937
O    -3.70713   0.32500  -0.97123
O    -2.50699  -1.56497  -0.79702
C    -0.67037  -0.13165   0.92472
C     0.15366   0.63539   1.91717
O     0.06624   1.90219   1.91968
O     0.89156  -0.03914   2.69292
H     3.32804   1.76233   0.35904
H     2.72845   1.75792  -1.33419
H     1.58286   1.97910   0.00861
H     1.70256  -2.54584  -1.85214
H     1.42187  -2.58422  -0.09602
H     0.03357  -2.41247  -1.21613
H    -0.97950   1.33093  -2.67524
H    -1.79686   1.52783   0.23011
H    -0.63002  -1.21983   0.99651
24

C     2.50260   1.45841  -0.29767
C     2.31873  -0.03614  -0.20157
O     3.07625  -0.73882   0.47921
C     1.19764  -0.64008  -0.91609
C     1.07982  -2.13087  -1.03586
N     0.46554   0.12785  -1.71989
C    -0.57362   0.75097  -1.79555
C    -1.58382   0.46367   0.07139
C    -2.69013  -0.32843  -0.61264
O    -3.70731   0.32521  -0.96895
O    -2.50832  -1.56560  -0.79562
C    -0.65879  -0.13189   0.91324
C     0.15502   0.63450   1.91407
O     0.06503   1.90145   1.91849
O     0.89007  -0.03946   2.69344
H     3.32856   1.76216   0.35849
H     2.72793   1.75735  -1.33438
H     1.58323   1.97949   0.00902
H     1.70286  -2.54312  -1.85263
H     1.42253  -2.58482  -0.09650
H     0.03373  -2.41320  -1.21616
H    -0.98730   1.33081  -2.66407
H    -1.79540   1.52804   0.22799
H    -0.63027  -1.21987   0.99601
24

C     2.50256   1.45814  -0.29745
C     2.31650  -0.03586  -0.19885
O     3.07528  -0.73880   0.48023
C     1.18913  -0.63861  -0.90630
C     1.07914  -2.12947  -1.03470
N     0.46695   0.12909  -1.72669
C    -0.58547   0.74522  -1.76751
C    -1.56878   0.46757   0.04791
C    -2.68888  -0.32830  -0.61591
O    -3.70750   0.32543  -0.96668
O    -2.50965  -1.56622  -0.79422
C    -0.64720  -0.13213   0.90176
C     0.15638   0.63360   1.91098
O     0.06382   1.90071   1.91730
O     0.88858  -0.03979   2.69396
H     3.32907   1.76198   0.35795
H     2.72741   1.75678  -1.33458
H     1.58360   1.97989   0.00943
H     1.70315  -2.54041  -1.85313
H     1.42318  -2.58543  -0.09698
H     0.03390  -2.41394  -1.21620
H    -0.99511   1.33069  -2.65289
H    -1.79394   1.52825   0.22587
H    -0.63052  -1.21991   0.99551
24

C     2.50252   1.45788  -0.29724
C     2.31427  -0.03558  -0.19614
O     3.07430  -0.73877   0.48126
C     1.18062  -0.63715  -0.89651
C     1.07846  -2.12808  -1.03354
N     0.46837   0.13033  -1.73350
C    -0.59731   0.73948  -1.73947
C    -1.55374   0.47147   0.02444
C    -2.68762  -0.32817  -0.61918
O    -3.70768   0.32565  -0.96441
O    -2.51099  -1.56685  -0.79282
C    -0.63562  -0.13237   0.89028
C     0.15774   0.63271   1.90788
O     0.06261   1.89996   1.91612
O     0.88710  -0.04012   2.69447
H     3.32959   1.76180   0.35740
H     2.72689   1.75621  -1.33477
H     1.58397   1.98028   0.00984
H     1.70344  -2.53770  -1.85362
H     1.42384  -2.58603  -0.09745
H     0.03406  -2.41467  -1.21623
H    -1.00291   1.33057  -2.64172
H    -1.79249   1.52847   0.22375
H    -0.63077  -1.21995   0.99501
24

C     2.50248   1.45762  -0.29702
C     2.31204  -0.03530  -0.19342
O     3.07333  -0.73875   0.48229
C     1.17212  -0.63568  -0.88672
C     1.07779  -2.12668  -1.03239
N     0.46978   0.13157  -1.74030
C    -0.60915   0.73373  -1.71143
C    -1.53870   0.47538   0.00096
C    -2.68636  -0.32804  -0.62244
O    -3.70787   0.32587  -0.96214
O    -2.51232  -1.56748  -0.79142
C    -0.62404  -0.13261   0.87881
C     0.15911   0.63181   1.90478
O     0.06140   1.89922   1.91493
O     0.88561  -0.04044   2.69499
H     3.33011   1.76163   0.35686
H     2.72637   1.75564  -1.33496
H     1.58434   1.98068   0.01025
H     1.70374  -2.53498  -1.85412
H     1.42449  -2.58664  -0.09793
H     0.03423  -2.41540  -1.21627
H    -1.01072   1.33045  -2.63055
H    -1.79103   1.52868   0.22164
H    -0.63103  -1.21999   0.99451
24

C     2.50243   1.45735  -0.29680
C     2.30981  -0.03502  -0.19071
O     3.07236  -0.73873   0.48332
C     1.16361  -0.63421  -0.87693
C     1.07711  -2.12528  -1.03123
N     0.47120   0.13280  -1.74710
C    -0.62099   0.72798  -1.68339
C    -1.52366   0.47928  -0.02251
C    -2.68510  -0.32791  -0.62571
O    -3.70805   0.32608  -0.95986
O    -2.51365  -1.56810  -0.79002
C    -0.61245  -0.13285   0.86733
C     0.16047   0.63092   1.90168
O     0.06019   1.89848   1.91375
O     0.88412  -0.04077   2.69551
H     3.33062   1.76145   0.35631
H     2.72585   1.75507  -1.33516
H     1.58471   1.98108   0.01067
H     1.70403  -2.53227  -1.85461
H     1.42514  -2.58724  -0.09841
H     0.03439  -2.41614  -1.21630
H    -1.01853   1.33033  -2.61938
H    -1.78958   1.52889   0.21952
H    -0.63128  -1.22002   0.99401
24

C     2.50239   1.45709  -0.29658
C     2.30759  -0.03474  -0.18799
O     3.07138  -0.73871   0.48435
C     1.15510  -0.63274  -0.86714
C     1.07643  -2.12388  -1.03007
N     0.47261   0.13404  -1.75390
C    -0.63283   0.72224  -1.65535
C    -1.50863   0.48318  -0.04599
C    -2.68385  -0.32778  -0.62898
O    -3.70823   0.32630  -0.95759
O    -2.51498  -1.56873  -0.78862
C    -0.60087  -0.13310   0.85585
C     0.16183   0.63003   1.89859
O     0.05898   1.89773   1.91256
O     0.88264  -0.04110   2.69603
H     3.33114   1.76127   0.35577
H     2.72533   1.75450  -1.33535
H     1.58508   1.98147   0.01108
H     1.70433  -2.52956  -1.85511
H     1.42580  -2.58784  -0.09889
H     0.03456  -2.41687  -1.21634
H    -1.02633   1.33020  -2.60821
H    -1.78812   1.52910   0.21740
H    -0.63153  -1.22006   0.99351
24

C     2.50235   1.45682  -0.29637
C     2.30536  -0.03446  -0.18528
O     3.07041  -0.73869   0.48538
C     1.14659  -0.63128  -0.85736
C     1.07575  -2.12248  -1.02892
N     0.47402   0.13528  -1.76071
C    -0.64467   0.71649  -1.62731
C    -1.49359   0.48708  -0.06946
C    -2.68259  -0.32765  -0.63225
O    -3.70842   0.32652  -0.95532
O    -2.51632  -1.56935  -0.78722
C    -0.58928  -0.13334   0.84437
C     0.16320   0.62913   1.89549
O     0.05778   1.89699   1.91137
O     0.88115  -0.04142   2.69654
H     3.33165   1.76110   0.35522
H     2.72481   1.75393  -1.33555
H     1.58545   1.98187   0.01149
H     1.70462  -2.52685  -1.85560
H     1.42645  -2.58845  -0.09936
H     0.03472  -2.41760  -1.21637
H    -1.03414   1.33008  -2.59704
H    -1.78666   1.52931   0.21529
H    -0.63179  -1.22010   0.99301
24

C     2.50231   1.45656  -0.29615
C     2.30313  -0.03419  -0.18256
O     3.06944  -0.73867   0.48640
C     1.13808  -0.62981  -0.84757
C     1.07507  -2.12108  -1.02776
N     0.47544   0.13652  -1.76751
C    -0.65652   0.71074  -1.59926
C    -1.47855   0.49099  -0.09293
C    -2.68133  -0.32752  -0.63552
O    -3.70860   0.32674  -0.95305
O    -2.51765  -1.56998  -0.78582
C    -0.57770  -0.13358   0.83290
C     0.16456   0.62824   1.89239
O     0.05657   1.89625   1.91019
O     0.87966  -0.04175   2.69706
H     3.33217   1.76092   0.35468
H     2.72429   1.75336  -1.33574
H     1.58582   1.98227   0.01190
H     1.70492  -2.52413  -1.85610
H     1.42711  -2.58905  -0.09984
H     0.03489  -2.41834  -1.21641
H    -1.04194   1.32996  -2.58587
H    -1.78521   1.52952   0.21317
H    -0.63204  -1.22014   0.99251
