12

C -2.402256000 -0.555551796 -0.527639048
C 0.293629840 0.183319516 0.039966271
C 0.985468817 2.872684648 -0.531972360
O 2.965800827 3.542044236 -1.391176915
C 1.660700559 -1.274655382 2.028456192
O 1.873627926 -1.918880309 4.167111252
N 2.400664510 -1.648834383 -0.358853473
H -2.760258548 -0.526900033 -2.560872449
H -2.828627177 -2.438166692 0.192660035
H -3.704632606 0.767406290 0.369973113
H -0.523409558 4.250967358 -0.062872832
H 2.292945567 -3.277750448 -1.348101043

