13

C -3.972627783 -0.469835406 0.720628841
C -1.720610320 -0.872134534 1.733561180
C 0.575839253 -1.701731370 0.303925314
C 2.672282197 0.256227568 0.403842164
O 4.807723665 -0.754475498 -0.848624772
H 6.128203715 0.483158202 -0.849245434
H 2.028093704 2.004707399 -0.507033305
H 3.118711853 0.703707779 2.381583001
H 0.100788883 -2.083717963 -1.668400626
H 1.312184247 -3.459542838 1.108400074
H -1.472878166 -0.573871500 3.753812936
H -4.306834295 -0.745986320 -1.283949754
H -5.566263776 0.134849666 1.854256097

