10

N -1.063254366 2.760809649 -0.339929567
C -1.423202765 0.590480133 0.135828241
O 1.193667673 -1.435974442 0.122073605
C 3.224030976 -0.330333613 -0.409143564
O 3.459861540 1.992993308 -0.896648552
C -3.572459926 -1.126732610 0.800201825
O -3.414358541 -3.332210673 1.212586553
H 1.448960564 2.798020775 -0.738612060
H 4.943630595 -1.487395061 -0.451507501
H -5.368015235 -0.066210221 0.860231772

