13

O 4.514584039 -1.321382205 -0.656637045
N 3.129031950 0.877575471 -0.337436734
C 0.808614754 0.414210694 -0.034519268
C -0.594913525 -2.036532749 -0.139798084
C -3.283451090 -1.014385803 -0.396593515
C -1.095871115 2.470115593 0.316413153
H 6.198118782 -0.711324982 -0.939613044
H -0.000812979 -3.162210268 -1.764720496
H -0.247236535 -3.147272342 1.571144567
H -2.928376899 1.659416396 -0.717579257
H -4.150416032 -0.934243935 1.494163418
H -0.742060754 4.191796556 -0.757260596
H -1.499675711 2.902832243 2.285492903

