17

C 3.877090278 -0.179432727 -1.041655477
C 1.564210897 0.515004510 0.480699574
O 0.259847641 2.620308531 -0.666469422
C -3.045530716 1.719007851 -0.601715821
C -2.814517593 -0.203689818 1.462059371
C -0.384085625 -1.615955983 0.806964191
O -0.693721446 -3.068913072 -1.402498756
H 5.131268834 1.443404977 -1.230340643
H 3.337838995 -0.844861666 -2.914228501
H 4.902866916 -1.701175998 -0.100267451
H 2.109456638 1.188612656 2.355692355
H -0.841400973 1.963763534 -2.198210289
H -3.874112901 3.506769286 -0.002029415
H -2.715250242 0.585181417 3.374922263
H -4.419599601 -1.502105313 1.379623886
H 0.219389682 -2.909369202 2.297078701
H -1.859341861 -2.152935040 -2.468648882

