12

O -3.403744592 1.081616476 0.912464898
C -2.280406459 -1.025281038 -0.017847405
C 0.242014145 -0.100313787 -2.328172027
C 0.581409977 -1.224030942 0.249641722
C 1.955526672 0.373882767 2.109800190
O 3.568117128 -0.391763998 3.503697404
H -2.284666847 2.213722484 1.792649684
H -2.179491135 -0.837308979 -2.451291369
H 0.931926451 -1.188491505 -3.920918507
H 0.398280171 1.937265341 -2.487317335
H 1.270050686 -3.154432855 0.288869205
H 1.432284392 2.414673598 2.148399830

