16

C -0.124139926 -2.547847209 -0.475787175
C -1.467574102 -1.338826588 1.806599548
C -1.895417413 1.374491465 1.196263495
C 0.085535977 2.660780190 0.121458216
C 2.237915325 1.615187393 -0.710678941
C 2.354584484 -1.206135292 -1.131917981
H -1.409119449 -2.439867918 -2.090642732
H 0.225750595 -4.550070903 -0.121378885
H -0.273517731 -1.485024589 3.494052298
H -3.238774620 -2.301895631 2.238317742
H -3.640445942 2.358911768 1.616514869
H -2.828105650 4.155297667 -1.385319634
H -0.896047015 4.616736132 -0.627681187
H 3.928399177 2.724967629 -1.026433846
H 3.888539997 -1.944812095 0.053352883
H 2.887465897 -1.653230132 -3.080665827

