15

C -4.323993858 -0.604782299 0.290840208
N -1.748905208 0.067481931 -0.365682414
C -0.217216346 -1.200699665 -1.931100374
C 2.119559435 0.097223820 -2.195259558
C 3.769077672 -0.064152422 1.109609783
C 1.654570817 2.086772838 -0.373147437
N -0.756984639 2.100885501 0.628932356
H -5.549016831 1.004645777 -0.075312276
H -4.414705456 -1.088090678 2.288021697
H -4.904251065 -2.213529279 -0.848867602
H -0.909790218 -2.873160349 -2.875363429
H 5.577331675 0.874847897 0.927075221
H 3.993740634 -2.045153963 0.656911414
H 2.990592900 0.129433937 3.004321534
H 2.701431469 3.833806820 -0.211036431

