13

C -2.219057502 -1.323234987 0.550754651
O -0.453996100 -2.860822573 -0.797487498
C 1.890795502 -1.662177569 -0.652798104
C 0.715276172 2.340001222 1.864603009
N 1.336100375 1.059569627 -0.696769574
C -1.298306571 1.379557197 0.158170171
H -2.198324901 -1.791184768 2.563151761
H -4.080161854 -1.680421023 -0.254604502
H 2.862937857 -2.050290976 1.128343072
H 3.029274952 -2.210336889 -2.280888718
H 0.993437962 4.366031345 1.531459676
H 1.831861445 2.019195041 -2.270629432
H -2.440706050 2.555324175 -1.087198236

