15

C 3.436178604 1.192559103 -0.986398071
C 2.289660600 -1.084696937 0.263231706
O 3.288613368 -2.201261063 1.979462680
C -2.902089826 1.332338119 1.563549720
C -2.611227792 -0.939237688 -0.106378995
O -1.525511102 -0.607141678 -2.536938690
C -0.174058780 -2.082996333 -0.759081593
H 2.059232933 2.706609658 -1.213949971
H 5.067631778 1.827788707 0.089745853
H 4.022938471 0.661142265 -2.895219916
H -3.273804870 0.728575158 3.500404915
H -4.495992157 2.477725652 0.931146277
H -1.217547330 2.514383939 1.569963451
H -4.227301920 -2.212098586 -0.111621284
H -0.122413227 -4.104393661 -1.131167079

