15

C 3.058941743 1.235769713 -0.717621247
C 1.230236406 -0.507831922 0.552236158
O 1.812908474 -1.370701242 2.831443303
C -2.048878632 1.179552383 1.159275546
C -2.864017363 -0.884764613 -0.631178787
O -1.619457929 -0.662956195 -3.003941699
C -0.472191517 -2.146196202 -1.102152413
H 2.284149497 2.079445406 -2.424012814
H 3.696947638 2.675900796 0.604446759
H 4.685808192 0.058140429 -1.214409496
H -0.022108378 0.216915520 2.685462716
H -2.949191250 0.981331753 3.022885788
H -2.214264023 3.114829297 0.491843422
H -4.719888760 -1.746719248 -0.671855085
H -0.078408271 -4.120453328 -1.476062657

