11

C -3.025311005 -0.553076274 0.066495513
N -0.304556539 -0.295470831 -0.007051910
C 1.053062091 1.785615727 0.127792465
N 3.481607299 1.143835538 0.375243087
C 3.531300123 -1.570713256 0.176553370
N 1.168682338 -2.378245650 -0.114596961
H -3.614398259 -1.758793804 -1.490577606
H -3.584764406 -1.422632068 1.845381131
H -3.893287877 1.302797127 -0.106416979
H 0.263037272 3.664453608 0.163657388
H 4.928578511 0.130557776 -1.035857797

