14

C 3.686819708 -0.883864933 0.633946196
O 3.002986915 1.693961326 1.985182900
C 1.238416633 0.221761666 1.262006973
C -1.501416489 -0.021182110 1.847690490
C -2.319009936 -0.535891596 -0.884092550
C -0.152418620 0.822798187 -2.237789828
H 4.498495685 -2.104967140 2.085741085
H 2.257399970 -0.131015789 -1.552277390
H -2.205408918 1.792547714 2.535187858
H -1.894356294 -1.477256492 3.253879257
H -4.214254854 0.133139785 -1.341075079
H -2.251901207 -2.559881382 -1.274850704
H -0.367664189 2.871549868 -2.238711391
H 0.197873676 0.188681160 -4.176306641

