17

C -3.675447770 -0.519572053 -0.371665476
C -1.168033066 0.061357914 0.912449762
C 1.890791590 -1.773543268 0.917563946
O 1.865333804 -3.228580133 -1.168594201
C 3.004414017 0.880285999 0.743612521
C 0.568303347 2.072390529 -0.270907414
O 0.455477589 2.093175343 -2.923800568
H -4.804469368 1.207312025 -0.450119497
H -4.738122539 -1.951379573 0.660493503
H -3.421006352 -1.159930997 -2.315621544
H -1.397535938 0.336350614 2.938738759
H 2.020082437 -2.759576074 2.739812203
H -0.214436502 -2.194574456 -0.214949317
H 3.531639386 1.617778510 2.595010975
H 4.614337106 0.972250239 -0.538141768
H 0.186162816 4.001616654 0.346439428
H 1.062751321 0.477805856 -3.518624653

