12

O 4.564978990 -0.577021560 -1.272548319
C 2.093630635 -0.640671656 -1.393317824
C 1.090662670 0.510252755 0.920663324
C -1.092008496 2.290879133 0.350570388
N -1.512320322 -0.073591132 1.523577269
C -2.838557782 -2.013446381 0.336654936
O -4.808590048 -1.718221158 -0.737945422
H 5.234852830 -1.285428843 -2.809437367
H 2.320550630 0.931404508 2.512805677
H -1.665602603 2.478599613 -1.608197486
H -1.259393122 3.956457018 1.527216466
H -1.961622153 -3.875692618 0.646199691

