16

C 4.467139271 0.519028851 -0.512824522
N 1.907582562 0.530323215 0.444361785
C 0.882103255 -1.425866221 1.942743978
C -3.875343453 -1.101822448 0.546616680
C -2.854794989 1.471858016 -0.478428010
C -0.269075079 0.245555019 -1.253976052
C -1.124537126 -1.897818404 0.411591704
H 5.777031506 0.402241075 1.074515943
H 4.836420593 2.273864398 -1.531895560
H 4.834079335 -1.081459477 -1.781722721
H 1.427672157 -1.877130420 3.864370154
H -4.778023520 -1.080647084 2.395880102
H -2.590220311 2.857118426 1.019182797
H -3.908300579 2.305609038 -2.039792848
H 0.154230187 0.109603019 -3.263275316
H -5.092756537 -2.068780642 -0.806333968

