16

C 3.530360249 0.848372286 0.218675290
N 1.775608153 -1.029104237 -0.718672105
C -0.018277355 -2.222594446 0.965753040
C -2.268090982 -0.371961048 1.467632948
C -1.932404909 1.615556759 -0.584461828
C -0.476104119 -0.302848057 -2.201622077
C -1.805517604 -2.780178114 -1.150036467
H 2.683938312 2.293483780 1.446042695
H 4.423928717 1.793602900 -1.382661583
H 5.012590613 -0.106117363 1.288718592
H 0.560848698 -3.502595089 2.461689191
H -2.898041579 -0.078330773 3.397854032
H -0.898131760 3.327208435 -0.083406596
H -3.725923432 2.143674645 -1.447605876
H -0.226757327 0.037053372 -4.213921053
H -3.897070636 -1.566898693 0.541464247

