10

C -3.117091488 0.297640765 -0.633973654
C -2.270003782 1.830195632 1.567995717
C -0.382467188 3.493377175 1.578058527
C 1.106845699 4.027042371 -0.615709980
N 2.311052847 4.471406310 -2.367691246
H 0.112694233 4.530743124 3.270318495
H -3.287362218 1.564064500 3.330168748
H -5.106073758 0.674436356 -1.040798543
H -2.965054027 -1.715507114 -0.199824119
H -2.009785301 0.692991237 -2.324151767

