13

O -4.270771498 -0.817369590 0.617749788
C -1.708830844 -0.329928871 0.819117776
C 0.104499266 -1.521150351 -1.128370322
O -0.856553836 0.287078897 -3.059929560
C -0.558884838 1.851701093 -0.727257093
C 1.979185457 0.591194015 -0.822700772
O 3.629934095 0.694154174 2.446009075
H -4.728603327 -0.687197375 -1.139007288
H -1.143975492 -0.434988970 2.790579317
H 0.390084202 -3.467734309 -1.715205249
H -1.043457633 3.841193665 -0.849412996
H 4.070231400 0.983154583 0.231316235
H 4.133603592 -1.023402064 2.778327070

