10

O -0.529932609 -2.558471514 1.240190859
C -1.503069111 1.038927487 -2.765223974
C -0.347847217 1.908984248 -0.463412964
O 1.948906111 0.689336620 0.263025745
C 1.859095856 -1.704582135 1.015596966
O 3.695970007 -2.924182444 1.482468205
H -0.407261472 -4.302523905 1.745785383
H -3.255907840 2.163013290 -2.936700141
H -1.601024973 2.117043378 1.174329520
H 0.216082019 3.849715611 -1.012525670

