16

C 3.601223750 -1.002583821 1.168223021
O 1.263752135 -0.669784493 2.380205428
C -3.098793781 1.365474580 -0.348609797
C -1.641135865 3.596970581 -1.078562905
C -1.857379645 -1.025118843 -1.086889114
C -0.712435442 -2.125425145 1.371339723
H 4.169320796 -2.997634360 1.170841501
H 3.578855572 -0.330377133 -0.792206167
H 4.991125214 0.090254113 2.221283997
H -2.523705693 3.942460062 -2.946505061
H -2.036999776 5.277590120 0.043363300
H 0.392388950 3.346033377 -1.413745026
H -3.263143923 -2.409756701 -1.700839759
H -0.366743212 -0.872035512 -2.531325995
H -0.059823192 -4.052958774 0.971770929
H -2.174121232 -2.215059806 2.820222922

