25

C     1.99962  -0.84335  -1.55410
C     0.96901  -1.25012  -0.51696
O     0.46606  -2.37730  -0.53692
N     0.54472  -0.34247   0.47388
C    -1.05824  -0.35328   0.79038
C    -1.41967  -0.12926   2.26511
C    -1.51621   0.69954  -0.19308
C    -2.10228   0.23390  -1.50833
O    -0.09848   1.40969  -0.64250
N     0.96224   0.96983   0.17110
C     1.18524   1.83232   1.32495
H     2.96400  -0.58852  -1.11604
H     1.65280   0.03203  -2.14145
H     2.14480  -1.69262  -2.27546
H    -1.35963  -1.40011   0.48717
H    -0.65827  -0.62332   2.87820
H    -2.41065  -0.54840   2.60111
H    -1.44240   0.94426   2.53915
H    -2.09096   1.55254   0.25609
H    -1.96915   1.04362  -2.23948
H    -1.57147  -0.66343  -1.87315
H    -3.19431  -0.02054  -1.51033
H     0.28747   2.10796   1.86509
H     1.90921   1.33144   2.00461
H     1.67680   2.75710   0.93936
25

C     2.00037  -0.84423  -1.55885
C     0.97132  -1.24897  -0.52043
O     0.46670  -2.37432  -0.53587
N     0.56616  -0.33974   0.47295
C    -1.08468  -0.35393   0.79266
C    -1.42249  -0.12874   2.26795
C    -1.53695   0.68930  -0.18682
C    -2.10429   0.23257  -1.50980
O    -0.07650   1.41340  -0.64669
N     0.95613   0.96922   0.17486
C     1.18911   1.83356   1.32543
H     2.96436  -0.58961  -1.11722
H     1.65358   0.03220  -2.14250
H     2.14447  -1.69268  -2.27715
H    -1.35889  -1.40058   0.48812
H    -0.65634  -0.62188   2.87625
H    -2.40949  -0.54907   2.60635
H    -1.44364   0.94456   2.53951
H    -2.09042   1.55313   0.25529
H    -1.96638   1.04357  -2.23866
H    -1.57187  -0.66408  -1.87273
H    -3.19500  -0.01991  -1.51533
H     0.28842   2.10897   1.86436
H     1.90970   1.33136   2.00491
H     1.67807   2.75669   0.93809
25

C     2.00112  -0.84511  -1.56360
C     0.97364  -1.24782  -0.52390
O     0.46734  -2.37133  -0.53482
N     0.58760  -0.33702   0.47202
C    -1.11113  -0.35457   0.79494
C    -1.42531  -0.12821   2.27078
C    -1.55769   0.67906  -0.18056
C    -2.10630   0.23123  -1.51127
O    -0.05451   1.41711  -0.65087
N     0.95001   0.96860   0.17863
C     1.19297   1.83480   1.32591
H     2.96473  -0.59070  -1.11841
H     1.65436   0.03236  -2.14354
H     2.14415  -1.69275  -2.27884
H    -1.35814  -1.40105   0.48906
H    -0.65442  -0.62044   2.87431
H    -2.40833  -0.54974   2.61159
H    -1.44488   0.94485   2.53988
H    -2.08988   1.55371   0.25449
H    -1.96361   1.04353  -2.23784
H    -1.57227  -0.66472  -1.87231
H    -3.19569  -0.01928  -1.52033
H     0.28936   2.10999   1.86363
H     1.91018   1.33127   2.00522
H     1.67933   2.75628   0.93682
25

C     2.00187  -0.84600  -1.56835
C     0.97595  -1.24667  -0.52737
O     0.46799  -2.36834  -0.53377
N     0.60904  -0.33429   0.47110
C    -1.13757  -0.35522   0.79722
C    -1.42814  -0.12769   2.27362
C    -1.57844   0.66882  -0.17429
C    -2.10830   0.22990  -1.51274
O    -0.03252   1.42082  -0.65506
N     0.94390   0.96798   0.18240
C     1.19684   1.83603   1.32639
H     2.96509  -0.59179  -1.11959
H     1.65514   0.03252  -2.14459
H     2.14383  -1.69281  -2.28053
H    -1.35740  -1.40153   0.49001
H    -0.65249  -0.61899   2.87237
H    -2.40717  -0.55041   2.61684
H    -1.44612   0.94515   2.54025
H    -2.08934   1.55429   0.25369
H    -1.96084   1.04348  -2.23701
H    -1.57267  -0.66537  -1.87189
H    -3.19638  -0.01866  -1.52533
H     0.29031   2.11100   1.86290
H     1.91066   1.33119   2.00552
H     1.68059   2.75586   0.93554
25

C     2.00262  -0.84688  -1.57311
C     0.97827  -1.24552  -0.53084
O     0.46863  -2.36536  -0.53272
N     0.63048  -0.33157   0.47017
C    -1.16401  -0.35587   0.79950
C    -1.43096  -0.12717   2.27645
C    -1.59918   0.65858  -0.16803
C    -2.11031   0.22856  -1.51421
O    -0.01053   1.42454  -0.65925
N     0.93778   0.96737   0.18616
C     1.20071   1.83727   1.32687
H     2.96546  -0.59288  -1.12077
H     1.65592   0.03268  -2.14563
H     2.14350  -1.69287  -2.28222
H    -1.35665  -1.40200   0.49095
H    -0.65056  -0.61755   2.87042
H    -2.40601  -0.55108   2.62208
H    -1.44735   0.94545   2.54062
H    -2.08881   1.55487   0.25289
H    -1.95808   1.04343  -2.23619
H    -1.57307  -0.66602  -1.87147
H    -3.19706  -0.01803  -1.53033
H     0.29125   2.11202   1.86217
H     1.91115   1.33110   2.00582
H     1.68185   2.75545   0.93427
25

C     2.00337  -0.84776  -1.57786
C     0.98058  -1.24437  -0.53431
O     0.46927  -2.36237  -0.53167
N     0.65192  -0.32884   0.46925
C    -1.19045  -0.35651   0.80178
C    -1.43379  -0.12665   2.27929
C    -1.61993   0.64835  -0.16177
C    -2.11231   0.22723  -1.51567
O     0.01145   1.42825  -0.66344
N     0.93167   0.96675   0.18993
C     1.20458   1.83851   1.32735
H     2.96582  -0.59397  -1.12195
H     1.65670   0.03285  -2.14668
H     2.14318  -1.69293  -2.28391
H    -1.35590  -1.40247   0.49190
H    -0.64863  -0.61611   2.86848
H    -2.40485  -0.55175   2.62732
H    -1.44859   0.94574   2.54099
H    -2.08827   1.55546   0.25209
H    -1.95531   1.04339  -2.23537
H    -1.57347  -0.66667  -1.87105
H    -3.19775  -0.01741  -1.53533
H     0.29220   2.11304   1.86144
H     1.91163   1.33102   2.00612
H     1.68311   2.75504   0.93299
25

C     2.00412  -0.84864  -1.58261
C     0.98290  -1.24322  -0.53779
O     0.46992  -2.35938  -0.53062
N     0.67336  -0.32612   0.46832
C    -1.21689  -0.35716   0.80406
C    -1.43661  -0.12613   2.28212
C    -1.64067   0.63811  -0.15551
C    -2.11432   0.22589  -1.51714
O     0.03344   1.43196  -0.66763
N     0.92555   0.96613   0.19369
C     1.20845   1.83974   1.32784
H     2.96619  -0.59506  -1.12313
H     1.65748   0.03301  -2.14772
H     2.14286  -1.69300  -2.28560
H    -1.35516  -1.40295   0.49285
H    -0.64670  -0.61467   2.86654
H    -2.40369  -0.55242   2.63256
H    -1.44983   0.94604   2.54136
H    -2.08773   1.55604   0.25129
H    -1.95254   1.04334  -2.23454
H    -1.57387  -0.66732  -1.87063
H    -3.19844  -0.01678  -1.54032
H     0.29314   2.11405   1.86071
H     1.91212   1.33093   2.00642
H     1.68437   2.75462   0.93172
25

C     2.00487  -0.84952  -1.58736
C     0.98521  -1.24207  -0.54126
O     0.47056  -2.35640  -0.52957
N     0.69480  -0.32339   0.46739
C    -1.24333  -0.35780   0.80634
C    -1.43943  -0.12561   2.28496
C    -1.66142   0.62787  -0.14925
C    -2.11633   0.22456  -1.51861
O     0.05543   1.43567  -0.67182
N     0.91944   0.96552   0.19746
C     1.21232   1.84098   1.32832
H     2.96656  -0.59615  -1.12431
H     1.65827   0.03317  -2.14877
H     2.14253  -1.69306  -2.28730
H    -1.35441  -1.40342   0.49379
H    -0.64478  -0.61323   2.86460
H    -2.40252  -0.55309   2.63781
H    -1.45107   0.94634   2.54173
H    -2.08719   1.55662   0.25049
H    -1.94977   1.04329  -2.23372
H    -1.57427  -0.66797  -1.87021
H    -3.19913  -0.01615  -1.54532
H     0.29409   2.11507   1.85999
H     1.91260   1.33085   2.00672
H     1.68563   2.75421   0.93045
25

C     2.00562  -0.85041  -1.59212
C     0.98753  -1.24092  -0.54473
O     0.47120  -2.35341  -0.52852
N     0.71624  -0.32067   0.46647
C    -1.26978  -0.35845   0.80862
C    -1.44226  -0.12509   2.28779
C    -1.68216   0.61763  -0.14299
C    -2.11833   0.22323  -1.52008
O     0.07742   1.43939  -0.67601
N     0.91332   0.96490   0.20122
C     1.21619   1.84222   1.32880
H     2.96692  -0.59724  -1.12549
H     1.65905   0.03334  -2.14982
H     2.14221  -1.69312  -2.28899
H    -1.35367  -1.40389   0.49474
H    -0.64285  -0.61179   2.86265
H    -2.40136  -0.55376   2.64305
H    -1.45230   0.94663   2.54210
H    -2.08665   1.55720   0.24969
H    -1.94700   1.04324  -2.23290
H    -1.57467  -0.66862  -1.86979
H    -3.19982  -0.01553  -1.55032
H     0.29503   2.11608   1.85926
H     1.91308   1.33076   2.00702
H     1.68690   2.75380   0.92917
25

C     2.00637  -0.85129  -1.59687
C     0.98985  -1.23977  -0.54820
O     0.47185  -2.35042  -0.52747
N     0.73768  -0.31794   0.46554
C    -1.29622  -0.35910   0.81090
C    -1.44508  -0.12457   2.29063
C    -1.70291   0.60739  -0.13673
C    -2.12034   0.22189  -1.52155
O     0.09940   1.44310  -0.68020
N     0.90721   0.96428   0.20499
C     1.22006   1.84346   1.32928
H     2.96729  -0.59833  -1.12667
H     1.65983   0.03350  -2.15086
H     2.14189  -1.69318  -2.29068
H    -1.35292  -1.40437   0.49568
H    -0.64092  -0.61035   2.86071
H    -2.40020  -0.55443   2.64829
H    -1.45354   0.94693   2.54246
H    -2.08611   1.55778   0.24889
H    -1.94424   1.04320  -2.23207
H    -1.57507  -0.66926  -1.86937
H    -3.20051  -0.01490  -1.55532
H     0.29598   2.11710   1.85853
H     1.91357   1.33067   2.00732
H     1.68816   2.75339   0.92790
25

C     2.00712  -0.85217  -1.60162
C     0.99216  -1.23862  -0.55167
O     0.47249  -2.34744  -0.52642
N     0.75912  -0.31522   0.46461
C    -1.32266  -0.35974   0.81318
C    -1.44791  -0.12405   2.29346
C    -1.72365   0.59715  -0.13047
C    -2.12235   0.22056  -1.52301
O     0.12139   1.44681  -0.68439
N     0.90109   0.96367   0.20876
C     1.22393   1.84469   1.32976
H     2.96765  -0.59942  -1.12785
H     1.66061   0.03366  -2.15191
H     2.14156  -1.69325  -2.29237
H    -1.35218  -1.40484   0.49663
H    -0.63899  -0.60891   2.85877
H    -2.39904  -0.55510   2.65353
H    -1.45478   0.94723   2.54283
H    -2.08557   1.55837   0.24809
H    -1.94147   1.04315  -2.23125
H    -1.57547  -0.66991  -1.86895
H    -3.20120  -0.01428  -1.56032
H     0.29693   2.11812   1.85780
H     1.91405   1.33059   2.00762
H     1.68942   2.75297   0.92662
25

C     2.00787  -0.85305  -1.60638
C     0.99448  -1.23747  -0.55514
O     0.47313  -2.34445  -0.52537
N     0.78056  -0.31249   0.46369
C    -1.34910  -0.36039   0.81547
C    -1.45073  -0.12353   2.29630
C    -1.74439   0.58691  -0.12420
C    -2.12435   0.21922  -1.52448
O     0.14338   1.45052  -0.68858
N     0.89498   0.96305   0.21252
C     1.22780   1.84593   1.33024
H     2.96802  -0.60051  -1.12903
H     1.66139   0.03382  -2.15295
H     2.14124  -1.69331  -2.29406
H    -1.35143  -1.40531   0.49757
H    -0.63707  -0.60747   2.85682
H    -2.39788  -0.55576   2.65878
H    -1.45602   0.94752   2.54320
H    -2.08503   1.55895   0.24729
H    -1.93870   1.04310  -2.23043
H    -1.57587  -0.67056  -1.86853
H    -3.20189  -0.01365  -1.56531
H     0.29787   2.11913   1.85707
H     1.91453   1.33050   2.00792
H     1.69068   2.75256   0.92535
25

C     2.00862  -0.85393  -1.61113
C     0.99679  -1.23632  -0.55861
O     0.47378  -2.34146  -0.52432
N     0.80200  -0.30977   0.46276
C    -1.37554  -0.36103   0.81775
C    -1.45356  -0.12301   2.29913
C    -1.76514   0.57667  -0.11794
C    -2.12636   0.21789  -1.52595
O     0.16536   1.45424  -0.69276
N     0.88886   0.96244   0.21629
C     1.23167   1.84717   1.33073
H     2.96838  -0.60160  -1.13021
H     1.66217   0.03399  -2.15400
H     2.14092  -1.69337  -2.29575
H    -1.35068  -1.40579   0.49852
H    -0.63514  -0.60603   2.85488
H    -2.39672  -0.55643   2.66402
H    -1.45725   0.94782   2.54357
H    -2.08450   1.55953   0.24649
H    -1.93593   1.04305  -2.22960
H    -1.57627  -0.67121  -1.86811
H    -3.20257  -0.01302  -1.57031
H     0.29882   2.12015   1.85634
H     1.91502   1.33042   2.00822
H     1.69194   2.75215   0.92408
25

C     2.00937  -0.85482  -1.61588
C     0.99911  -1.23517  -0.56208
O     0.47442  -2.33848  -0.52327
N     0.82344  -0.30704   0.46183
C    -1.40199  -0.36168   0.82003
C    -1.45638  -0.12249   2.30197
C    -1.78588   0.56643  -0.11168
C    -2.12837   0.21655  -1.52742
O     0.18735   1.45795  -0.69695
N     0.88275   0.96182   0.22005
C     1.23554   1.84840   1.33121
H     2.96875  -0.60269  -1.13139
H     1.66296   0.03415  -2.15504
H     2.14059  -1.69343  -2.29744
H    -1.34994  -1.40626   0.49946
H    -0.63321  -0.60458   2.85294
H    -2.39556  -0.55710   2.66926
H    -1.45849   0.94811   2.54394
H    -2.08396   1.56011   0.24569
H    -1.93316   1.04301  -2.22878
H    -1.57667  -0.67186  -1.86769
H    -3.20326  -0.01240  -1.57531
H     0.29976   2.12116   1.85561
H     1.91550   1.33033   2.00852
H     1.69320   2.75173   0.92280
25

C     2.01012  -0.85570  -1.62063
C     1.00142  -1.23402  -0.56555
O     0.47506  -2.33549  -0.52221
N     0.84488  -0.30432   0.46091
C    -1.42843  -0.36233   0.82231
C    -1.45920  -0.12196   2.30480
C    -1.80663   0.55619  -0.10542
C    -2.13037   0.21522  -1.52889
O     0.20934   1.46166  -0.70114
N     0.87664   0.96120   0.22382
C     1.23940   1.84964   1.33169
H     2.96911  -0.60377  -1.13257
H     1.66374   0.03431  -2.15609
H     2.14027  -1.69350  -2.29913
H    -1.34919  -1.40673   0.50041
H    -0.63128  -0.60314   2.85099
H    -2.39440  -0.55777   2.67450
H    -1.45973   0.94841   2.54431
H    -2.08342   1.56070   0.24489
H    -1.93039   1.04296  -2.22796
H    -1.57707  -0.67251  -1.86727
H    -3.20395  -0.01177  -1.58031
H     0.30071   2.12218   1.85489
H     1.91599   1.33025   2.00882
H     1.69446   2.75132   0.92153
25

C     2.01087  -0.85658  -1.62539
C     1.00374  -1.23286  -0.56902
O     0.47571  -2.33250  -0.52116
N     0.86632  -0.30159   0.45998
C    -1.45487  -0.36297   0.82459
C    -1.46203  -0.12144   2.30764
C    -1.82737   0.54595  -0.09916
C    -2.13238   0.21389  -1.53035
O     0.23133   1.46537  -0.70533
N     0.87052   0.96059   0.22758
C     1.24327   1.85088   1.33217
H     2.96948  -0.60486  -1.13375
H     1.66452   0.03447  -2.15713
H     2.13995  -1.69356  -2.30082
H    -1.34845  -1.40721   0.50136
H    -0.62935  -0.60170   2.84905
H    -2.39324  -0.55844   2.67974
H    -1.46097   0.94871   2.54468
H    -2.08288   1.56128   0.24409
H    -1.92763   1.04291  -2.22713
H    -1.57747  -0.67316  -1.86685
H    -3.20464  -0.01115  -1.58531
H     0.30165   2.12319   1.85416
H     1.91647   1.33016   2.00912
H     1.69572   2.75091   0.92025
25

C     2.01162  -0.85746  -1.63014
C     1.00605  -1.23171  -0.57249
O     0.47635  -2.32952  -0.52011
N     0.88776  -0.29886   0.45906
C    -1.48131  -0.36362   0.82687
C    -1.46485  -0.12092   2.31047
C    -1.84812   0.53571  -0.09290
C    -2.13438   0.21255  -1.53182
O     0.25331   1.46909  -0.70952
N     0.86441   0.95997   0.23135
C     1.24714   1.85211   1.33265
H     2.96984  -0.60595  -1.13493
H     1.66530   0.03464  -2.15818
H     2.13962  -1.69362  -2.30252
H    -1.34770  -1.40768   0.50230
H    -0.62743  -0.60026   2.84711
H    -2.39207  -0.55911   2.68499
H    -1.46220   0.94900   2.54505
H    -2.08234   1.56186   0.24329
H    -1.92486   1.04287  -2.22631
H    -1.57787  -0.67381  -1.86643
H    -3.20533  -0.01052  -1.59030
H     0.30260   2.12421   1.85343
H     1.91695   1.33008   2.00942
H     1.69699   2.75050   0.91898
25

C     2.01237  -0.85834  -1.63489
C     1.00837  -1.23056  -0.57596
O     0.47699  -2.32653  -0.51906
N     0.90920  -0.29614   0.45813
C    -1.50775  -0.36426   0.82915
C    -1.46768  -0.12040   2.31331
C    -1.86886   0.52547  -0.08664
C    -2.13639   0.21122  -1.53329
O     0.27530   1.47280  -0.71371
N     0.85829   0.95935   0.23512
C     1.25101   1.85335   1.33313
H     2.97021  -0.60704  -1.13611
H     1.66608   0.03480  -2.15922
H     2.13930  -1.69369  -2.30421
H    -1.34696  -1.40815   0.50325
H    -0.62550  -0.59882   2.84516
H    -2.39091  -0.55978   2.69023
H    -1.46344   0.94930   2.54541
H    -2.08180   1.56244   0.24249
H    -1.92209   1.04282  -2.22549
H    -1.57827  -0.67445  -1.86601
H    -3.20602  -0.00989  -1.59530
H     0.30354   2.12523   1.85270
H     1.91744   1.32999   2.00972
H     1.69825   2.75008   0.91771
25

C     2.01312  -0.85923  -1.63964
C     1.01068  -1.22941  -0.57943
O     0.47763  -2.32354  -0.51801
N     0.93064  -0.29341   0.45720
C    -1.53419  -0.36491   0.83143
C    -1.47050  -0.11988   2.31614
C    -1.88961   0.51523  -0.08038
C    -2.13840   0.20988  -1.53476
O     0.29729   1.47651  -0.71790
N     0.85218   0.95874   0.23888
C     1.25488   1.85459   1.33362
H     2.97057  -0.60813  -1.13729
H     1.66686   0.03496  -2.16027
H     2.13898  -1.69375  -2.30590
H    -1.34621  -1.40863   0.50419
H    -0.62357  -0.59738   2.84322
H    -2.38975  -0.56045   2.69547
H    -1.46468   0.94960   2.54578
H    -2.08126   1.56303   0.24169
H    -1.91932   1.04277  -2.22466
H    -1.57867  -0.67510  -1.86559
H    -3.20671  -0.00927  -1.60030
H     0.30449   2.12624   1.85197
H     1.91792   1.32991   2.01002
H     1.69951   2.74967   0.91643
25

C     2.01387  -0.86011  -1.64440
C     1.01300  -1.22826  -0.58290
O     0.47828  -2.32056  -0.51696
N     0.95208  -0.29069   0.45628
C    -1.56064  -0.36556   0.83371
C    -1.47332  -0.11936   2.31898
C    -1.91035   0.50499  -0.07412
C    -2.14040   0.20855  -1.53623
O     0.31928   1.48022  -0.72209
N     0.84606   0.95812   0.24265
C     1.25875   1.85582   1.33410
H     2.97094  -0.60922  -1.13847
H     1.66764   0.03512  -2.16131
H     2.13865  -1.69381  -2.30759
H    -1.34546  -1.40910   0.50514
H    -0.62164  -0.59594   2.84128
H    -2.38859  -0.56112   2.70071
H    -1.46591   0.94989   2.54615
H    -2.08072   1.56361   0.24088
H    -1.91655   1.04272  -2.22384
H    -1.57907  -0.67575  -1.86517
H    -3.20740  -0.00864  -1.60530
H     0.30544   2.12726   1.85124
H     1.91841   1.32982   2.01032
H     1.70077   2.74926   0.91516
25

C     2.01462  -0.86099  -1.64915
C     1.01532  -1.22711  -0.58637
O     0.47892  -2.31757  -0.51591
N     0.97352  -0.28796   0.45535
C    -1.58708  -0.36620   0.83599
C    -1.47615  -0.11884   2.32181
C    -1.93110   0.49475  -0.06785
C    -2.14241   0.20721  -1.53769
O     0.34126   1.48394  -0.72628
N     0.83995   0.95750   0.24641
C     1.26262   1.85706   1.33458
H     2.97130  -0.61031  -1.13965
H     1.66843   0.03529  -2.16236
H     2.13833  -1.69387  -2.30928
H    -1.34472  -1.40958   0.50608
H    -0.61971  -0.59450   2.83934
H    -2.38743  -0.56179   2.70596
H    -1.46715   0.95019   2.54652
H    -2.08018   1.56419   0.24008
H    -1.91379   1.04268  -2.22302
H    -1.57947  -0.67640  -1.86475
H    -3.20809  -0.00802  -1.61030
H     0.30638   2.12827   1.85051
H     1.91889   1.32973   2.01062
H     1.70203   2.74884   0.91388
25

C     2.01387  -0.86011  -1.64440
C     1.01300  -1.22826  -0.58290
O     0.47828  -2.32056  -0.51696
N     0.95208  -0.29069   0.45628
C    -1.56064  -0.36556   0.83371
C    -1.47332  -0.11936   2.31898
C    -1.91035   0.50499  -0.07412
C    -2.14040   0.20855  -1.53623
O     0.31928   1.48022  -0.72209
N     0.84606   0.95812   0.24265
C     1.25875   1.85582   1.33410
H     2.97094  -0.60922  -1.13847
H     1.66764   0.03512  -2.16131
H     2.13865  -1.69381  -2.30759
H    -1.34546  -1.40910   0.50514
H    -0.62164  -0.59594   2.84128
H    -2.38859  -0.56112   2.70071
H    -1.46591   0.94989   2.54615
H    -2.08072   1.56361   0.24088
H    -1.91655   1.04272  -2.22384
H    -1.57907  -0.67575  -1.86517
H    -3.20740  -0.00864  -1.60530
H     0.30544   2.12726   1.85124
H     1.91841   1.32982   2.01032
H     1.70077   2.74926   0.91516
25

C     2.01312  -0.85923  -1.63964
C     1.01068  -1.22941  -0.57943
O     0.47763  -2.32354  -0.51801
N     0.93064  -0.29341   0.45720
C    -1.53419  -0.36491   0.83143
C    -1.47050  -0.11988   2.31614
C    -1.88961   0.51523  -0.08038
C    -2.13840   0.20988  -1.53476
O     0.29729   1.47651  -0.71790
N     0.85218   0.95874   0.23888
C     1.25488   1.85459   1.33362
H     2.97057  -0.60813  -1.13729
H     1.66686   0.03496  -2.16027
H     2.13898  -1.69375  -2.30590
H    -1.34621  -1.40863   0.50419
H    -0.62357  -0.59738   2.84322
H    -2.38975  -0.56045   2.69547
H    -1.46468   0.94960   2.54578
H    -2.08126   1.56303   0.24169
H    -1.91932   1.04277  -2.22466
H    -1.57867  -0.67510  -1.86559
H    -3.20671  -0.00927  -1.60030
H     0.30449   2.12624   1.85197
H     1.91792   1.32991   2.01002
H     1.69951   2.74967   0.91643
25

C     2.01237  -0.85834  -1.63489
C     1.00837  -1.23056  -0.57596
O     0.47699  -2.32653  -0.51906
N     0.90920  -0.29614   0.45813
C    -1.50775  -0.36426   0.82915
C    -1.46768  -0.12040   2.31331
C    -1.86886   0.52547  -0.08664
C    -2.13639   0.21122  -1.53329
O     0.27530   1.47280  -0.71371
N     0.85829   0.95935   0.23512
C     1.25101   1.85335   1.33313
H     2.97021  -0.60704  -1.13611
H     1.66608   0.03480  -2.15922
H     2.13930  -1.69369  -2.30421
H    -1.34696  -1.40815   0.50325
H    -0.62550  -0.59882   2.84516
H    -2.39091  -0.55978   2.69023
H    -1.46344   0.94930   2.54541
H    -2.08180   1.56244   0.24249
H    -1.92209   1.04282  -2.22549
H    -1.57827  -0.67445  -1.86601
H    -3.20602  -0.00989  -1.59530
H     0.30354   2.12523   1.85270
H     1.91744   1.32999   2.00972
H     1.69825   2.75008   0.91771
25

C     2.01162  -0.85746  -1.63014
C     1.00605  -1.23171  -0.57249
O     0.47635  -2.32952  -0.52011
N     0.88776  -0.29886   0.45906
C    -1.48131  -0.36362   0.82687
C    -1.46485  -0.12092   2.31047
C    -1.84812   0.53571  -0.09290
C    -2.13438   0.21255  -1.53182
O     0.25331   1.46909  -0.70952
N     0.86441   0.95997   0.23135
C     1.24714   1.85211   1.33265
H     2.96984  -0.60595  -1.13493
H     1.66530   0.03464  -2.15818
H     2.13962  -1.69362  -2.30252
H    -1.34770  -1.40768   0.50230
H    -0.62743  -0.60026   2.84711
H    -2.39207  -0.55911   2.68499
H    -1.46220   0.94900   2.54505
H    -2.08234   1.56186   0.24329
H    -1.92486   1.04287  -2.22631
H    -1.57787  -0.67381  -1.86643
H    -3.20533  -0.01052  -1.59030
H     0.30260   2.12421   1.85343
H     1.91695   1.33008   2.00942
H     1.69699   2.75050   0.91898
25

C     2.01087  -0.85658  -1.62539
C     1.00374  -1.23286  -0.56902
O     0.47571  -2.33250  -0.52116
N     0.86632  -0.30159   0.45998
C    -1.45487  -0.36297   0.82459
C    -1.46203  -0.12144   2.30764
C    -1.82737   0.54595  -0.09916
C    -2.13238   0.21389  -1.53035
O     0.23133   1.46537  -0.70533
N     0.87052   0.96059   0.22758
C     1.24327   1.85088   1.33217
H     2.96948  -0.60486  -1.13375
H     1.66452   0.03447  -2.15713
H     2.13995  -1.69356  -2.30082
H    -1.34845  -1.40721   0.50136
H    -0.62935  -0.60170   2.84905
H    -2.39324  -0.55844   2.67974
H    -1.46097   0.94871   2.54468
H    -2.08288   1.56128   0.24409
H    -1.92763   1.04291  -2.22713
H    -1.57747  -0.67316  -1.86685
H    -3.20464  -0.01115  -1.58531
H     0.30165   2.12319   1.85416
H     1.91647   1.33016   2.00912
H     1.69572   2.75091   0.92025
25

C     2.01012  -0.85570  -1.62063
C     1.00142  -1.23402  -0.56555
O     0.47506  -2.33549  -0.52221
N     0.84488  -0.30432   0.46091
C    -1.42843  -0.36233   0.82231
C    -1.45920  -0.12196   2.30480
C    -1.80663   0.55619  -0.10542
C    -2.13037   0.21522  -1.52889
O     0.20934   1.46166  -0.70114
N     0.87664   0.96120   0.22382
C     1.23940   1.84964   1.33169
H     2.96911  -0.60377  -1.13257
H     1.66374   0.03431  -2.15609
H     2.14027  -1.69350  -2.29913
H    -1.34919  -1.40673   0.50041
H    -0.63128  -0.60314   2.85099
H    -2.39440  -0.55777   2.67450
H    -1.45973   0.94841   2.54431
H    -2.08342   1.56070   0.24489
H    -1.93039   1.04296  -2.22796
H    -1.57707  -0.67251  -1.86727
H    -3.20395  -0.01177  -1.58031
H     0.30071   2.12218   1.85489
H     1.91599   1.33025   2.00882
H     1.69446   2.75132   0.92153
25

C     2.00937  -0.85482  -1.61588
C     0.99911  -1.23517  -0.56208
O     0.47442  -2.33848  -0.52327
N     0.82344  -0.30704   0.46183
C    -1.40199  -0.36168   0.82003
C    -1.45638  -0.12249   2.30197
C    -1.78588   0.56643  -0.11168
C    -2.12837   0.21655  -1.52742
O     0.18735   1.45795  -0.69695
N     0.88275   0.96182   0.22005
C     1.23554   1.84840   1.33121
H     2.96875  -0.60269  -1.13139
H     1.66296   0.03415  -2.15504
H     2.14059  -1.69343  -2.29744
H    -1.34994  -1.40626   0.49946
H    -0.63321  -0.60458   2.85294
H    -2.39556  -0.55710   2.66926
H    -1.45849   0.94811   2.54394
H    -2.08396   1.56011   0.24569
H    -1.93316   1.04301  -2.22878
H    -1.57667  -0.67186  -1.86769
H    -3.20326  -0.01240  -1.57531
H     0.29976   2.12116   1.85561
H     1.91550   1.33033   2.00852
H     1.69320   2.75173   0.92280
25

C     2.00862  -0.85393  -1.61113
C     0.99679  -1.23632  -0.55861
O     0.47378  -2.34146  -0.52432
N     0.80200  -0.30977   0.46276
C    -1.37554  -0.36103   0.81775
C    -1.45356  -0.12301   2.29913
C    -1.76514   0.57667  -0.11794
C    -2.12636   0.21789  -1.52595
O     0.16536   1.45424  -0.69276
N     0.88886   0.96244   0.21629
C     1.23167   1.84717   1.33073
H     2.96838  -0.60160  -1.13021
H     1.66217   0.03399  -2.15400
H     2.14092  -1.69337  -2.29575
H    -1.35068  -1.40579   0.49852
H    -0.63514  -0.60603   2.85488
H    -2.39672  -0.55643   2.66402
H    -1.45725   0.94782   2.54357
H    -2.08450   1.55953   0.24649
H    -1.93593   1.04305  -2.22960
H    -1.57627  -0.67121  -1.86811
H    -3.20257  -0.01302  -1.57031
H     0.29882   2.12015   1.85634
H     1.91502   1.33042   2.00822
H     1.69194   2.75215   0.92408
25

C     2.00787  -0.85305  -1.60638
C     0.99448  -1.23747  -0.55514
O     0.47313  -2.34445  -0.52537
N     0.78056  -0.31249   0.46369
C    -1.34910  -0.36039   0.81547
C    -1.45073  -0.12353   2.29630
C    -1.74439   0.58691  -0.12420
C    -2.12435   0.21922  -1.52448
O     0.14338   1.45052  -0.68858
N     0.89498   0.96305   0.21252
C     1.22780   1.84593   1.33024
H     2.96802  -0.60051  -1.12903
H     1.66139   0.03382  -2.15295
H     2.14124  -1.69331  -2.29406
H    -1.35143  -1.40531   0.49757
H    -0.63707  -0.60747   2.85682
H    -2.39788  -0.55576   2.65878
H    -1.45602   0.94752   2.54320
H    -2.08503   1.55895   0.24729
H    -1.93870   1.04310  -2.23043
H    -1.57587  -0.67056  -1.86853
H    -3.20189  -0.01365  -1.56531
H     0.29787   2.11913   1.85707
H     1.91453   1.33050   2.00792
H     1.69068   2.75256   0.92535
25

C     2.00712  -0.85217  -1.60162
C     0.99216  -1.23862  -0.55167
O     0.47249  -2.34744  -0.52642
N     0.75912  -0.31522   0.46461
C    -1.32266  -0.35974   0.81318
C    -1.44791  -0.12405   2.29346
C    -1.72365   0.59715  -0.13047
C    -2.12235   0.22056  -1.52301
O     0.12139   1.44681  -0.68439
N     0.90109   0.96367   0.20876
C     1.22393   1.84469   1.32976
H     2.96765  -0.59942  -1.12785
H     1.66061   0.03366  -2.15191
H     2.14156  -1.69325  -2.29237
H    -1.35218  -1.40484   0.49663
H    -0.63899  -0.60891   2.85877
H    -2.39904  -0.55510   2.65353
H    -1.45478   0.94723   2.54283
H    -2.08557   1.55837   0.24809
H    -1.94147   1.04315  -2.23125
H    -1.57547  -0.66991  -1.86895
H    -3.20120  -0.01428  -1.56032
H     0.29693   2.11812   1.85780
H     1.91405   1.33059   2.00762
H     1.68942   2.75297   0.92662
25

C     2.00637  -0.85129  -1.59687
C     0.98985  -1.23977  -0.54820
O     0.47185  -2.35042  -0.52747
N     0.73768  -0.31794   0.46554
C    -1.29622  -0.35910   0.81090
C    -1.44508  -0.12457   2.29063
C    -1.70291   0.60739  -0.13673
C    -2.12034   0.22189  -1.52155
O     0.09940   1.44310  -0.68020
N     0.90721   0.96428   0.20499
C     1.22006   1.84346   1.32928
H     2.96729  -0.59833  -1.12667
H     1.65983   0.03350  -2.15086
H     2.14189  -1.69318  -2.29068
H    -1.35292  -1.40437   0.49568
H    -0.64092  -0.61035   2.86071
H    -2.40020  -0.55443   2.64829
H    -1.45354   0.94693   2.54246
H    -2.08611   1.55778   0.24889
H    -1.94424   1.04320  -2.23207
H    -1.57507  -0.66926  -1.86937
H    -3.20051  -0.01490  -1.55532
H     0.29598   2.11710   1.85853
H     1.91357   1.33067   2.00732
H     1.68816   2.75339   0.92790
25

C     2.00562  -0.85041  -1.59212
C     0.98753  -1.24092  -0.54473
O     0.47120  -2.35341  -0.52852
N     0.71624  -0.32067   0.46647
C    -1.26978  -0.35845   0.80862
C    -1.44226  -0.12509   2.28779
C    -1.68216   0.61763  -0.14299
C    -2.11833   0.22323  -1.52008
O     0.07742   1.43939  -0.67601
N     0.91332   0.96490   0.20122
C     1.21619   1.84222   1.32880
H     2.96692  -0.59724  -1.12549
H     1.65905   0.03334  -2.14982
H     2.14221  -1.69312  -2.28899
H    -1.35367  -1.40389   0.49474
H    -0.64285  -0.61179   2.86265
H    -2.40136  -0.55376   2.64305
H    -1.45230   0.94663   2.54210
H    -2.08665   1.55720   0.24969
H    -1.94700   1.04324  -2.23290
H    -1.57467  -0.66862  -1.86979
H    -3.19982  -0.01553  -1.55032
H     0.29503   2.11608   1.85926
H     1.91308   1.33076   2.00702
H     1.68690   2.75380   0.92917
25

C     2.00487  -0.84952  -1.58736
C     0.98521  -1.24207  -0.54126
O     0.47056  -2.35640  -0.52957
N     0.69480  -0.32339   0.46739
C    -1.24333  -0.35780   0.80634
C    -1.43943  -0.12561   2.28496
C    -1.66142   0.62787  -0.14925
C    -2.11633   0.22456  -1.51861
O     0.05543   1.43567  -0.67182
N     0.91944   0.96552   0.19746
C     1.21232   1.84098   1.32832
H     2.96656  -0.59615  -1.12431
H     1.65827   0.03317  -2.14877
H     2.14253  -1.69306  -2.28730
H    -1.35441  -1.40342   0.49379
H    -0.64478  -0.61323   2.86460
H    -2.40252  -0.55309   2.63781
H    -1.45107   0.94634   2.54173
H    -2.08719   1.55662   0.25049
H    -1.94977   1.04329  -2.23372
H    -1.57427  -0.66797  -1.87021
H    -3.19913  -0.01615  -1.54532
H     0.29409   2.11507   1.85999
H     1.91260   1.33085   2.00672
H     1.68563   2.75421   0.93045
25

C     2.00412  -0.84864  -1.58261
C     0.98290  -1.24322  -0.53779
O     0.46992  -2.35938  -0.53062
N     0.67336  -0.32612   0.46832
C    -1.21689  -0.35716   0.80406
C    -1.43661  -0.12613   2.28212
C    -1.64067   0.63811  -0.15551
C    -2.11432   0.22589  -1.51714
O     0.03344   1.43196  -0.66763
N     0.92555   0.96613   0.19369
C     1.20845   1.83974   1.32784
H     2.96619  -0.59506  -1.12313
H     1.65748   0.03301  -2.14772
H     2.14286  -1.69300  -2.28560
H    -1.35516  -1.40295   0.49285
H    -0.64670  -0.61467   2.86654
H    -2.40369  -0.55242   2.63256
H    -1.44983   0.94604   2.54136
H    -2.08773   1.55604   0.25129
H    -1.95254   1.04334  -2.23454
H    -1.57387  -0.66732  -1.87063
H    -3.19844  -0.01678  -1.54032
H     0.29314   2.11405   1.86071
H     1.91212   1.33093   2.00642
H     1.68437   2.75462   0.93172
25

C     2.00337  -0.84776  -1.57786
C     0.98058  -1.24437  -0.53431
O     0.46927  -2.36237  -0.53167
N     0.65192  -0.32884   0.46925
C    -1.19045  -0.35651   0.80178
C    -1.43379  -0.12665   2.27929
C    -1.61993   0.64835  -0.16177
C    -2.11231   0.22723  -1.51567
O     0.01145   1.42825  -0.66344
N     0.93167   0.96675   0.18993
C     1.20458   1.83851   1.32735
H     2.96582  -0.59397  -1.12195
H     1.65670   0.03285  -2.14668
H     2.14318  -1.69293  -2.28391
H    -1.35590  -1.40247   0.49190
H    -0.64863  -0.61611   2.86848
H    -2.40485  -0.55175   2.62732
H    -1.44859   0.94574   2.54099
H    -2.08827   1.55546   0.25209
H    -1.95531   1.04339  -2.23537
H    -1.57347  -0.66667  -1.87105
H    -3.19775  -0.01741  -1.53533
H     0.29220   2.11304   1.86144
H     1.91163   1.33102   2.00612
H     1.68311   2.75504   0.93299
25

C     2.00262  -0.84688  -1.57311
C     0.97827  -1.24552  -0.53084
O     0.46863  -2.36536  -0.53272
N     0.63048  -0.33157   0.47017
C    -1.16401  -0.35587   0.79950
C    -1.43096  -0.12717   2.27645
C    -1.59918   0.65858  -0.16803
C    -2.11031   0.22856  -1.51421
O    -0.01053   1.42454  -0.65925
N     0.93778   0.96737   0.18616
C     1.20071   1.83727   1.32687
H     2.96546  -0.59288  -1.12077
H     1.65592   0.03268  -2.14563
H     2.14350  -1.69287  -2.28222
H    -1.35665  -1.40200   0.49095
H    -0.65056  -0.61755   2.87042
H    -2.40601  -0.55108   2.62208
H    -1.44735   0.94545   2.54062
H    -2.08881   1.55487   0.25289
H    -1.95808   1.04343  -2.23619
H    -1.57307  -0.66602  -1.87147
H    -3.19706  -0.01803  -1.53033
H     0.29125   2.11202   1.86217
H     1.91115   1.33110   2.00582
H     1.68185   2.75545   0.93427
25

C     2.00187  -0.84600  -1.56835
C     0.97595  -1.24667  -0.52737
O     0.46799  -2.36834  -0.53377
N     0.60904  -0.33429   0.47110
C    -1.13757  -0.35522   0.79722
C    -1.42814  -0.12769   2.27362
C    -1.57844   0.66882  -0.17429
C    -2.10830   0.22990  -1.51274
O    -0.03252   1.42082  -0.65506
N     0.94390   0.96798   0.18240
C     1.19684   1.83603   1.32639
H     2.96509  -0.59179  -1.11959
H     1.65514   0.03252  -2.14459
H     2.14383  -1.69281  -2.28053
H    -1.35740  -1.40153   0.49001
H    -0.65249  -0.61899   2.87237
H    -2.40717  -0.55041   2.61684
H    -1.44612   0.94515   2.54025
H    -2.08934   1.55429   0.25369
H    -1.96084   1.04348  -2.23701
H    -1.57267  -0.66537  -1.87189
H    -3.19638  -0.01866  -1.52533
H     0.29031   2.11100   1.86290
H     1.91066   1.33119   2.00552
H     1.68059   2.75586   0.93554
25

C     2.00112  -0.84511  -1.56360
C     0.97364  -1.24782  -0.52390
O     0.46734  -2.37133  -0.53482
N     0.58760  -0.33702   0.47202
C    -1.11113  -0.35457   0.79494
C    -1.42531  -0.12821   2.27078
C    -1.55769   0.67906  -0.18056
C    -2.10630   0.23123  -1.51127
O    -0.05451   1.41711  -0.65087
N     0.95001   0.96860   0.17863
C     1.19297   1.83480   1.32591
H     2.96473  -0.59070  -1.11841
H     1.65436   0.03236  -2.14354
H     2.14415  -1.69275  -2.27884
H    -1.35814  -1.40105   0.48906
H    -0.65442  -0.62044   2.87431
H    -2.40833  -0.54974   2.61159
H    -1.44488   0.94485   2.53988
H    -2.08988   1.55371   0.25449
H    -1.96361   1.04353  -2.23784
H    -1.57227  -0.66472  -1.87231
H    -3.19569  -0.01928  -1.52033
H     0.28936   2.10999   1.86363
H     1.91018   1.33127   2.00522
H     1.67933   2.75628   0.93682
25

C     2.00037  -0.84423  -1.55885
C     0.97132  -1.24897  -0.52043
O     0.46670  -2.37432  -0.53587
N     0.56616  -0.33974   0.47295
C    -1.08468  -0.35393   0.79266
C    -1.42249  -0.12874   2.26795
C    -1.53695   0.68930  -0.18682
C    -2.10429   0.23257  -1.50980
O    -0.07650   1.41340  -0.64669
N     0.95613   0.96922   0.17486
C     1.18911   1.83356   1.32543
H     2.96436  -0.58961  -1.11722
H     1.65358   0.03220  -2.14250
H     2.14447  -1.69268  -2.27715
H    -1.35889  -1.40058   0.48812
H    -0.65634  -0.62188   2.87625
H    -2.40949  -0.54907   2.60635
H    -1.44364   0.94456   2.53951
H    -2.09042   1.55313   0.25529
H    -1.96638   1.04357  -2.23866
H    -1.57187  -0.66408  -1.87273
H    -3.19500  -0.01991  -1.51533
H     0.28842   2.10897   1.86436
H     1.90970   1.33136   2.00491
H     1.67807   2.75669   0.93809
