11

C -4.117491976 -0.582209010 0.485276585
C 0.075408406 0.327452650 -1.001660708
N -1.959785453 -0.616544275 -1.189849028
O 4.172453848 -2.224614488 1.277950535
C 4.421032655 -0.191401836 0.267013615
C 2.405252728 1.255979824 -0.927706560
H -4.555706388 -2.523434045 1.008602013
H -3.767384968 0.534054291 2.183112436
H -5.730679718 0.185137905 -0.536743106
H 6.295684151 0.736517658 0.191666908
H 2.779900418 3.086710059 -1.753578954

