11

C -3.369462976 -0.103583977 0.182096787
C -0.349066279 -0.497722454 0.172322802
N -0.870212021 -2.658091639 0.860799276
O 4.235909264 -2.221362326 0.494274668
C 3.956019679 -0.030616700 -0.167796115
C 1.535713015 1.157263724 -0.422634356
H -4.539718416 -1.708722336 0.721780553
H -3.634678290 1.411849499 1.543063653
H -3.773623502 0.398909412 -1.768377947
H 5.613415353 1.158610797 -0.611963088
H 1.214389786 3.081114731 -0.999484443

