12

N 4.448241367 0.962134649 -0.047501271
C 2.178550108 0.058522626 -0.024414298
C 0.930746014 -2.287008048 -0.098609972
N -1.679968679 -1.806094594 0.045969742
C -2.095716817 0.624258874 0.187531885
O -4.394890543 1.649935621 0.409904103
N 0.123876480 1.816180535 0.138784491
H 5.726978123 -0.454692710 -0.170342502
H 0.424815800 3.675253053 0.383547696
H 1.655950317 -4.180077192 -0.085039565
H -3.068955572 -3.096221051 -0.023805163
H -4.562557684 3.084573308 -0.692386562

