12

O 4.044070787 -3.052779630 -0.050775788
C 2.533782866 -1.521277303 0.670240182
C 0.669559918 -0.251789962 -1.019229738
C -3.120131850 -0.987530943 -0.072342042
O -3.206465802 1.596261390 -0.415128988
C -0.625948006 2.180024453 -0.071722193
H 2.403891823 -0.999270847 2.697639280
H 1.333880117 -0.201117240 -2.971927490
H -1.140596907 -1.733109063 -1.479741614
H -2.451455039 -1.382248678 1.889891891
H -0.203082593 2.487002979 1.938309037
H -0.144763245 3.872044483 -1.144155601

