12

O 3.099605342 0.924057688 0.597571784
C 3.164495325 -0.975440891 2.126168941
C 0.688365547 1.398880441 -0.660795293
C -0.732117185 -0.919868732 -1.602039284
C -2.620017003 -0.237294232 0.481765002
O -1.193368303 2.021858874 1.072284120
H 5.115385931 -0.884705067 2.900484334
H 1.145377139 2.925419648 -1.966875403
H 0.270106454 -2.693651296 -1.345176201
H -1.435244875 -0.735451474 -3.524658567
H -2.656478437 -1.527941233 2.087398923
H -4.531325009 0.237634704 -0.125468990

