12

O 4.040724536 0.211218431 -0.019072174
C 3.005852968 -0.518129928 1.995493245
C 0.367755198 1.531372125 -0.726819791
C -0.846999286 -0.825391780 -1.677514378
C -2.665895339 -0.312423828 0.525634540
O -1.449482223 2.171120877 0.813188760
H 4.482687616 -0.901773489 3.503957827
H 1.535113159 3.004154066 -1.514215056
H 0.282292258 -2.529517716 -1.639740208
H -1.700915877 -0.511714988 -3.530355638
H -2.263404499 -1.437230070 2.198129901
H -4.669314492 -0.061655546 0.144067466

