13

C -1.539820335 2.865296877 0.024720774
C -0.684143615 0.200932443 -0.191323810
N -2.272547655 -1.618987179 -0.301982732
O -0.966490808 -3.864974961 -0.971319984
C 2.602580197 -0.195589753 1.745101491
O 1.773123484 -0.147842138 -1.223477215
H -3.342203601 2.881458987 1.013054642
H -0.179718850 3.993066399 1.068784121
H -1.806136414 3.660741317 -1.861585249
H -2.297244241 -5.069421745 -1.195838628
H 3.198425244 -2.156036005 1.977476332
H 4.236766236 1.062794104 1.709703520
H 1.763684113 -1.876423265 -1.878948072

