13

O 2.156268404 1.242296884 -3.146991982
C 3.397639945 0.341481542 -1.458023804
C 2.414451896 -0.662993460 0.993193715
C -0.353956456 -0.604305218 1.497924823
C -4.490735544 0.553217965 -0.073172822
N -2.006282656 0.322521353 -0.144696424
H 5.476874552 0.208072396 -1.663497902
H 3.496519997 0.370255343 2.442983302
H 3.189370867 -2.593193361 1.106952261
H -1.079106825 -1.334070658 3.262249610
H -5.513841715 -0.089684210 1.568477956
H -5.418389021 1.383699042 -1.679961177
H -1.159706309 0.966461593 -1.753282040

