10

N -3.521627711 -0.080770523 -0.114089796
C -1.078873860 -0.025555031 0.315538569
N -0.254876358 -2.381159532 0.159748263
O 2.330751711 -2.258500716 -0.548986566
C 3.071137676 0.184511498 -0.259937384
O 5.155802865 0.951894639 -0.575031811
N 0.917321022 1.575039463 0.436643406
H -2.584101491 -2.595309873 -0.557287566
H -4.715782442 1.060529135 0.843173479
H 0.880716403 3.467891799 0.323164994

