15

C -0.212289868 -1.138510838 -2.297170862
C -0.611847342 -1.152196764 0.307379582
C -3.030208061 -0.028240653 1.343133501
C 1.899732961 0.912607875 2.275486992
O 1.671316058 0.484988875 4.438354622
C 3.298367360 2.373869082 0.585559267
C 3.278167605 2.380135225 -1.823474991
H 0.871002323 -2.646458069 -3.164384776
H 1.693147610 0.839867762 -2.592152481
H -1.598764502 -0.245487782 -3.519114640
H 0.081648225 -2.804463910 1.310223108
H -3.434463054 1.792923505 0.458762745
H -4.617437636 -1.285886384 0.942253842
H -2.941221368 0.238657424 3.381760992
H 4.323751577 3.381196777 -3.257959913

