12

C -3.417336353 1.774908066 -0.104778511
C -2.203155306 -0.721978483 0.438712713
O -1.298311257 -2.157300969 -1.734425937
C 0.416943031 -1.208499321 -0.062669441
C 2.819870053 -1.093027417 0.291124990
C 5.241709833 -0.947610025 0.703579732
H -2.364433547 2.789852869 -1.553901345
H -3.454815442 2.919502386 1.610922546
H -5.359692011 1.508016017 -0.744697526
H -3.134656474 -1.913349855 1.830824986
H 6.226238096 -2.370988913 1.803746912
H 6.361133738 0.597738023 -0.047803457

