19

C 4.973437056 -0.172352226 0.694331506
C 3.413081635 -1.106983196 -1.247981520
C -0.051456789 -0.882846314 0.603798337
O 0.938840562 -0.097285387 2.945856715
C -1.423394459 0.999866905 -1.099230424
C -4.283522463 0.833563466 -0.897372620
O -4.967505621 1.145206573 1.671405801
H 5.718138116 1.729107738 0.483241728
H 3.275237074 0.118456084 2.404228345
H 6.273532064 -1.482393995 1.593425969
H 3.463564742 -3.102471395 -1.703247913
H 2.961323046 0.097466631 -2.838860573
H -0.253850293 -2.908114481 0.275318413
H -1.491156939 -0.842522922 2.392957092
H -0.923408076 0.719991984 -3.082414296
H -0.801220765 2.892607823 -0.556450966
H -4.923760427 -1.011348484 -1.599776242
H -5.154974314 2.299625239 -2.074425027
H -6.707031438 0.698618237 1.893743966

