12

C 4.035573275 -0.448849299 -0.023436497
O 2.400932096 -2.574965044 0.444414622
C -0.045379940 -2.337616765 0.633973994
O -0.678244476 0.074691028 0.366865647
C -3.337479456 0.565511352 0.440036051
O -4.267043636 1.029483033 -1.949661340
H 3.572163107 0.432725910 -1.824528136
H 3.866432034 0.938297870 1.487426185
H 5.934920524 -1.226363696 -0.074776878
H -4.280218334 -1.107559524 1.175524828
H -3.560998152 2.183811994 1.704072986
H -3.665777173 2.637779105 -2.532724166

