12

C 4.258268182 -0.720568067 -0.093859182
O 2.205886111 -1.932793625 1.209450874
C -0.060655031 -0.856007856 1.092887880
O -0.204162231 1.157411520 -0.191991374
C -3.726826608 0.136733401 0.289094422
O -4.601296597 1.292227284 -1.754646574
H 3.886040154 -0.621282442 -2.117115792
H 4.561929804 1.186873654 0.622046477
H 5.904759928 -1.891420340 0.275870345
H -4.242268627 -1.836257987 0.243698155
H -3.846879019 1.077990186 2.098778003
H -4.139019585 3.052417464 -1.724400581

