12

O 5.913875589 -4.577111013 2.681804981
C 4.452856777 -3.100521765 1.961724029
C 2.627549338 -1.724435635 1.139776558
C 2.193761704 0.716766070 0.610066521
C -2.173287448 0.209511384 -0.710856689
C -4.339242342 1.153622260 -1.542113555
N -0.019234332 1.651481832 -0.252792651
H 3.627718882 2.175228026 0.843834902
H -1.900941744 -1.779928256 -0.317586843
H -4.591433871 3.149956188 -1.927925124
H -5.935086178 -0.078641066 -1.856907364
H -0.123642040 3.520165252 -0.582370600

