12

C -2.953150302 1.471287281 0.478505092
C -1.642274199 -1.088159445 0.217739365
C 1.045084517 -0.898482248 -0.436694297
C 3.097486808 -1.019682819 -1.594776292
C 5.703159202 -0.753639011 -2.114361724
C 5.649907155 0.237376114 0.107552950
H -4.941114727 1.206196236 0.953247437
H -2.082377599 2.598487750 1.968263539
H -2.839871482 2.536987728 -1.280831933
H -2.538086037 -2.206063935 -1.273286276
H -1.839652804 -2.182982895 1.957768681
H 3.159558907 0.218909068 1.117138546

