17

C 3.649043213 -0.045210129 -0.920646883
C 1.072305209 0.683220465 0.066757750
O -0.399655929 1.661118377 -2.044900759
C -0.755054756 4.070264376 -2.131844676
C -2.967790237 -0.713975928 2.239390124
C -0.418060048 -1.520099172 1.188820715
O -0.659990251 -3.530318675 -0.556304077
H 4.586217169 1.599592939 -1.734780488
H 3.491860348 -1.520468764 -2.348470502
H 4.810031663 -0.759185622 0.626257014
H 1.203078226 2.225986089 1.432803708
H -1.895900049 4.307659633 -3.886609812
H -2.750132904 0.774280887 3.651499158
H -3.898330025 -2.328033321 3.116812244
H -4.194006836 0.004762847 0.742787618
H 0.736280384 -2.277784332 2.727045175
H -1.662697886 -2.945967245 -1.952834152

