17

C 3.931261621 -0.209657781 -0.884339008
C 1.450914654 0.495931353 0.326381761
O 0.042988227 2.080622422 -1.326568540
C -2.423779338 2.280392551 -0.285018302
C -2.881246714 -0.177097781 1.215955897
C -0.409862945 -1.651352537 0.865079808
O -0.546740306 -3.399306873 -1.148383807
H 5.035506339 1.484100116 -1.279353752
H 3.632706682 -1.226130768 -2.649607279
H 5.019225952 -1.421939219 0.379728333
H 1.803094843 1.508225361 2.112881350
H -3.744220101 2.552093783 -1.843242528
H -2.529220481 3.942526392 0.946982768
H -3.218784038 0.223502860 3.209423771
H -4.473396985 -1.275624623 0.512544559
H 0.108918844 -2.747216112 2.530747550
H -0.797366234 -2.459069142 -2.683212581

