14

C -4.057844283 -0.006276574 -0.355373051
O -3.408278215 0.997064876 1.690755368
C 0.660263921 1.204087453 2.322320037
C 1.813527378 -0.245237677 0.551344926
C 3.977204643 -0.658102471 -1.054794705
O 3.035153398 -2.548161338 0.669782131
H -4.880145718 -1.920790123 -0.347728277
H -4.673986084 1.195499517 -1.943420973
H -1.862377403 -0.860205978 -1.712926485
H 0.159549312 0.438482053 4.142703342
H 0.465867435 3.210960875 2.028619237
H -0.298742702 -0.589192436 -1.080931053
H 5.789424312 0.147328718 -0.533470970
H 3.715655964 -1.095176546 -3.042235884

