15

C 3.993075772 -0.123849551 -1.509816133
C 1.357595140 0.173601334 -0.522355336
C -0.011462020 -1.987178488 0.521075425
C -2.472957590 -1.792472050 0.993642109
C -3.775168448 0.608120462 0.240395084
O -2.159510380 2.742322440 0.545692849
C 0.212424227 2.419999168 -0.357110390
H 4.800767432 1.695307284 -2.045835852
H 4.037736954 -1.346809302 -3.174146969
H 5.227423277 -0.976200787 -0.088740783
H 1.033609099 -3.687445339 0.989863299
H -3.550947039 -3.299434904 1.862315364
H -5.432676957 0.992440149 1.398470465
H -4.378987553 0.522305032 -1.750917180
H 1.126602956 4.200292707 -0.796139594

