17

C 4.749950202 0.791207674 -0.036242642
C 2.389972969 -0.854620571 -0.048964845
C 0.061761503 0.560978995 0.857079142
N -2.145358939 -1.067802143 0.875542862
C -4.572112933 0.183165031 0.750900326
C -3.557075061 -1.191563406 -1.465764651
H 4.519687490 2.443780464 -1.253580268
H 6.396108582 -0.253022763 -0.707488970
H 5.175406184 1.472487484 1.866333715
H 2.039540229 -1.569788972 -1.958183154
H 2.659327237 -2.511471172 1.154216787
H -0.245329971 2.243070687 -0.340226367
H 0.360629948 1.242262245 2.787203208
H -6.064973649 -0.637633430 1.886777207
H -4.584044872 2.235129718 0.652718131
H -4.296481411 -3.030599631 -1.978700232
H -2.887007525 -0.055580209 -3.041620249

