17

C 4.658078294 0.674767928 -0.054121208
C 2.243078321 -0.883236996 -0.174395567
C -0.010924034 0.541686195 0.892701821
N -2.276047976 -1.018621152 0.948690967
C -4.706091719 0.170579814 0.477039893
C -3.927051840 -1.121284189 -1.881684679
H 4.471366815 2.431925078 -1.122011980
H 6.254343123 -0.365180522 -0.839607736
H 5.130299631 1.171161054 1.893558962
H 1.841638434 -1.413836243 -2.132656862
H 2.478570208 -2.643643020 0.882665108
H -0.351916383 2.263591960 -0.214953210
H 0.385452993 1.117821077 2.840762487
H -6.259386708 -0.582920511 1.588772669
H -4.579058395 2.219044652 0.560041313
H -2.409241713 -2.693445902 -0.377973344
H -2.848065296 0.195949160 -3.065796819

