19

C 3.867844359 -1.656026246 -0.109429788
C 2.472634276 0.443891810 1.236856381
C 0.959111711 2.162828154 -0.007870520
C -0.505551325 1.666683148 -2.377081258
C -2.642996885 0.742212310 -0.827687835
C -2.826088084 -1.692098793 0.112166338
O -4.313740979 2.592794572 -0.157184225
H 4.603335971 -3.034331216 1.234002970
H 5.455748038 -0.904255172 -1.193871612
H 2.644071270 -2.672452632 -1.422469930
H 3.407696671 1.170595818 2.914857572
H 0.653317306 -1.236860501 2.648322719
H 0.402311618 3.855751226 1.000003740
H 0.294289279 0.216303438 -3.593523891
H -0.966170556 3.347588603 -3.465840615
H -0.926918053 -1.861562100 2.175491246
H -1.959030281 -3.194561926 -0.975848146
H -4.572678623 -2.233226858 1.044853517
H -5.386036702 1.986719115 1.174422589

