14

C 6.254249317 3.287304412 -0.817902606
C 4.222583633 1.953780149 -1.287542426
C 2.258393342 0.671607890 -1.743242209
C 0.248771503 -0.711447965 -2.229654217
N -1.511153511 -1.514771051 -0.440125643
C -4.032943362 -0.437239124 -0.433654672
H -5.561982469 -1.764408653 -0.131759208
H -4.416191914 1.073085458 -1.767010126
C -2.205409371 0.110912108 1.628169585
H -1.356503540 1.977779217 1.671105977
H -2.408814011 -0.808119154 3.445558676
H -0.094441652 -1.417393936 -4.125844301
H 7.609542790 3.701230476 -2.295104409
H 6.634187466 4.003655933 1.061744135

