13

C -4.236168289 0.776577811 0.062798245
C -1.218510769 0.563794441 -0.283403058
C -1.378742158 -1.950512416 0.011957526
N 2.922722574 -3.250335265 -1.519346834
C 4.078673014 -1.474312128 -1.003112736
N 5.376385002 0.626352880 -0.518107969
O 0.112677736 2.420889267 -0.399107342
H -4.807202157 1.891742292 -1.571198557
H -5.343369880 -0.960060958 0.133769895
H -4.503404230 1.795535749 1.825639276
H -1.954331590 -3.237922807 -1.468419584
H 4.208655520 2.135109424 -0.335503734
H 6.710100618 0.466237916 0.830044909

