13

C -0.427615353 -3.026697346 1.492207721
C 0.266871337 1.693813266 -3.464759540
O 0.700876384 3.300365613 -1.345757348
C 0.560621251 1.808369465 0.847191245
C -0.055694764 -0.783216834 -0.162150652
N -0.213030943 -0.822977957 -2.546640241
H 1.276128972 -3.396951839 2.598536316
H -1.960592725 -2.686987989 2.832958051
H -0.871733742 -4.680869015 0.355586609
H -1.361248529 2.382890257 -4.539557733
H 1.930415462 1.691360874 -4.696820458
H -0.911414910 2.505750517 2.130589672
H 2.360936666 1.818332253 1.878663063

