13

N -4.019311785 -0.496570666 0.801100371
C -1.847709387 0.206843601 -0.701676929
C -0.538094563 2.690206080 -0.157966780
C 1.962614071 2.042871552 0.114924053
C 2.281731158 -0.615381187 -0.073082191
O 4.371713638 -1.973232158 0.116055017
N 0.124426106 -1.764542125 -0.479825670
H -5.523129624 0.523282285 0.208352869
H -3.713874236 0.025153691 2.618847867
H -2.417880388 0.276352982 -2.692643014
H 3.536424550 3.298498412 0.503824682
H 5.781830731 -0.862427540 0.399804103
H -0.114164724 -3.641275267 -0.652944709

