13

N -4.188175670 -0.476591083 0.888401995
C -1.724034466 0.187188768 0.141186314
C -0.510146175 2.602071937 0.408493989
C 2.112512816 1.957072902 0.102472213
C 2.378026215 -0.611537710 -0.089620923
O 4.401171218 -2.108391645 -0.375884422
N 0.086652825 -1.739349241 -0.061138045
H -5.254835625 -1.221040413 -0.506706836
H -5.060355671 1.043109810 1.641057045
H -1.675213259 1.575871339 -1.749302617
H 3.658623690 3.290203592 0.039969559
H 5.893414731 -1.077501994 -0.399990165
H -0.222123587 -3.611800396 -0.031269563

