15

C -5.326047516 0.307027375 -0.614277039
O -3.127887172 -1.179704449 -0.294917821
C -1.053675741 0.188458456 0.490568140
C 1.021194165 0.122103898 -0.930107911
O 1.194525552 -1.237295497 -3.084090218
O 3.103604853 1.440508934 -0.353802235
C 5.412370829 0.064142445 -0.442985989
H -6.834760843 -0.959589547 -1.211339711
H -5.032460063 1.769779992 -2.047880139
H -5.870255797 1.213096004 1.165542085
H -1.158425509 1.228667253 2.248575573
H -0.375892737 -2.150409289 -3.244490795
H 5.320659284 -1.588639708 0.795219033
H 5.850007060 -0.537412069 -2.364771430
H 6.865499279 1.352440364 0.229523546

