15

C -4.582115499 1.057991819 -0.967166158
O -3.632405422 -1.416478704 -0.715357884
C -1.435204416 -1.560583530 0.777616801
C 0.873908930 -0.867938472 -0.497746907
O 1.437167123 -2.528565237 -2.166983737
O 2.406761939 0.958855596 0.086909090
C 4.889074617 0.914032842 -1.013141872
H -6.366656369 0.933687732 -1.990148514
H -3.281047132 2.272381624 -2.032947485
H -4.918670185 1.921487980 0.887608405
H -1.695824672 -0.831537358 2.689209381
H -0.176590692 -3.581823349 -0.916030056
H 5.669063497 -0.988076545 -0.917553458
H 4.788465712 1.521144077 -2.976121075
H 6.012530102 2.228593779 0.092622318

