10

O 4.242955958 -2.313208874 0.064547451
C 2.471853536 -0.961428950 0.103564135
O 2.461093757 1.631040249 0.061501874
C -0.213493642 1.788441453 0.401126911
C -1.717481217 -0.918665902 -2.083483448
C -0.384447924 -1.221227609 0.267364594
H -0.767140859 2.448887033 2.269286177
H -3.751303569 -0.961020202 -1.602119937
H -1.107372309 2.908216772 -1.087246310
H -1.163473950 -2.175865525 1.919056696

