11

N -3.253609007 -0.784286325 0.682178300
C -0.942211531 -0.193896218 -0.198652508
O 0.316246536 -1.616768376 -1.902664380
N 0.000788545 2.195197972 -0.962341895
C 2.200253348 0.415038678 -0.897508075
N 2.183172510 -0.179168052 1.656085886
H -3.524313182 -2.620042949 1.096154441
H -4.045102030 0.446967283 1.892562339
H 0.180600975 3.402582165 0.522864447
H 3.822673366 0.667681247 -2.138209482
H 3.006792918 -1.897991258 1.944862796

