16

C 3.487569461 1.832016969 0.688368740
C 2.083142957 -0.489726853 1.337906065
C -0.796809559 -0.736585745 1.751159821
C -1.531104785 -2.207157387 -0.688285309
C -0.733146103 0.324476615 -1.909149315
C -1.877930227 1.611695406 0.414139017
N 2.046258243 0.329960865 -1.352741795
H 3.127453291 -0.628436775 -2.595766695
H 2.424269968 3.558310413 1.059244103
H 3.131995361 -2.215543708 1.738163192
H -1.412277635 -1.325102131 3.619868563
H -0.424703758 -3.881899310 -1.174282390
H -3.545818927 -2.598332093 -0.862229591
H -1.149875330 0.873123654 -3.845399798
H -1.208112021 3.478504293 0.946777846
H -3.932001430 1.579470360 0.329981935

