14

C 4.155429872 1.300944912 -0.589168077
O 1.529682426 0.954865723 -0.558922671
C 0.735643660 -0.649625802 1.395660555
C -2.069818706 -0.981189967 1.335133289
C -3.564297802 0.092694128 -0.362704055
O -6.113257701 -0.147110587 -0.507861156
H 4.595974146 2.571630565 -2.146795207
H 5.154045589 -0.494810518 -0.878815131
H 4.831369808 2.147675517 1.180724788
H 1.320850644 0.132142784 3.235592944
H 1.672725132 -2.501588036 1.218017191
H -2.859828142 -2.190735705 2.796319568
H -6.696745886 -1.234112593 0.823656879
H -2.834914125 1.304911145 -1.838478207

