8

C -1.699910373 -0.021721287 -0.208760993
C 1.072599780 0.715539317 -0.301664389
C 1.566087887 3.108889038 -0.649901173
C 3.042909023 -1.099648809 -0.026191169
N 4.595671960 -2.598509708 0.199825215
H -2.894879217 1.635260934 -0.469188629
H -2.120550086 -0.866778199 1.620523451
H -2.097553725 -1.374776228 -1.707989179

