14

C 1.957097488 0.683605780 -0.450754483
C 2.388119998 -2.061862241 0.310565793
C -2.407213451 -0.361223870 -2.520603991
O -4.108309306 -0.666464396 -0.713208340
C -2.801096947 0.844754821 1.169864796
C -0.801257521 1.382035535 -0.855121084
H 2.773755709 1.950671871 0.965051989
H 2.958503140 1.063825196 -2.217301512
H 1.452104199 -2.530326122 2.089591005
H 4.398691954 -2.439368445 0.563447884
H 1.679219932 -3.351441149 -1.135221165
H -2.241440439 -0.328677835 2.766842241
H -3.979172433 2.408365749 1.811951744
H -0.943531013 3.307584234 -1.595775106

