21

C 4.505629004 -0.292655838 -0.255412492
C 2.084687922 -1.028747721 -1.095453825
C -0.152760566 -2.682455689 0.225602364
C -2.188345806 -0.988761665 -0.914883427
C -4.627886480 -0.531965085 0.497726252
C -0.004274920 0.883435568 -0.783885098
C 0.020991418 2.610188008 1.456826266
H 3.618229282 2.581594713 -2.129002755
H 4.758358879 0.540868378 1.596892558
H 6.182615677 -1.028423293 -1.160655953
H 2.115211420 -1.742240295 -3.029187835
H -0.026895055 -4.619235068 -0.444833347
H -0.082945068 -2.602053814 2.276014793
H -2.561317593 -1.550679589 -2.865043919
H -4.296498381 -0.085986847 2.483491679
H -5.687720253 1.028283945 -0.339533953
H -5.826442194 -2.209995585 0.428369562
H 2.120992055 2.949296262 -2.542703960
H 1.743407314 3.735486902 1.508435499
H -0.097872204 1.572819545 3.250166248
H -1.611182440 3.869035737 1.377333103

