9

O -1.311750082 1.032344929 -1.831009235
C -1.328871058 0.359079182 0.761120588
C -0.492697616 -2.362789410 0.975036508
H -1.769011327 -3.591114906 -0.079575725
H 1.406432863 -2.593707310 0.206561503
H -0.480892629 -2.964164079 2.948095416
H -3.230243451 0.580991062 1.561058948
H -0.048797075 1.582020508 1.842806398
H -1.848036631 2.753414603 -1.994555525

