12

C 3.515464086 0.640714761 0.616027832
C 1.698881417 2.285969454 0.129669208
C -1.051803722 1.706375580 0.165689656
H -2.050829529 2.855796487 1.563605524
C -2.436986483 1.434443329 -2.326012052
H -2.873774718 2.651878220 -3.892489071
C -2.847761031 -0.948144269 -1.653617015
H -3.776895771 -2.629231761 -2.350833774
O -1.628799677 -0.955566622 0.645191068
H 2.151234627 4.233993819 -0.339551470
H 3.082731562 -1.301516743 1.093287708
H 5.484357055 1.193597508 0.545892310

