8

N 1.791159786 1.708618193 1.496402082
C 3.024799381 0.653195079 -0.264759379
N 2.009638393 -1.129986794 -1.813408477
H 0.132801864 -1.395469239 -1.689055181
H 2.880120532 -1.594330808 -3.430697170
C 5.686287179 1.196610203 -0.775278662
N 7.767698297 1.680636981 -1.137554297
H 2.878504740 2.922154409 2.499686594

