14

C -3.055617979 -1.048143776 2.731579384
C -0.480654693 1.033145700 -2.194293700
C 0.946812598 2.761052403 -0.474067373
O 3.039117760 1.462858517 0.683609522
C 2.796163401 -1.012240756 1.076105298
N 1.266147268 -2.527836956 0.015236692
C -0.276146982 -1.447224019 -1.872078709
H -2.386949048 -2.886465854 3.465500691
H -4.546948112 -1.604334507 1.372067854
H -1.676898139 1.837749510 -3.645023047
H -0.267595367 3.486774302 1.037202545
H 1.774088284 4.351295166 -1.489205948
H 4.183738763 -1.695784080 2.425427576
H -1.263311092 -2.792674608 -3.056568115

