9

C 1.280209382 -2.268864636 -0.976772033
H 0.922148139 -1.584029287 -2.894510361
C 1.823368656 -0.045308546 0.683969231
C 1.665417939 2.560201426 -0.161767416
N 1.481072359 4.598272582 -0.884363008
H 1.598341165 -0.237880803 2.715259861
N 4.006701888 -1.393749041 -0.393864750
H 5.070568128 -0.386876108 -1.624540309
H 5.022746644 -2.502714068 0.777708377

