14

C 2.721419536 0.483137623 -1.527036678
C 0.769023234 0.252498024 2.452955519
C -1.709966154 1.447483970 2.250341711
O -2.879174365 1.005707066 -0.121577231
C -1.758801477 -1.238449855 -1.053038299
C 0.921434937 -1.203093325 0.053077758
H 2.897796727 -0.340131730 -3.408016696
H 4.584194633 0.597442224 -0.663008559
H 1.968815585 2.392046471 -1.738433234
H -1.818682419 3.442288977 2.756019760
H -2.685974208 0.394166313 3.795536729
H -1.823447231 -1.190684721 -3.113244365
H -2.808754817 -2.903014885 -0.389967058
H 1.784228044 -3.061539436 0.269650369

