14

C 2.422405337 0.629355220 -1.217460988
C 1.045553453 0.390585187 2.000400089
C -1.518232009 1.614843879 1.720469894
O -2.766027977 0.703617942 -0.489431470
C -1.742935639 -1.707370785 -0.991544494
C 0.966334225 -1.542774657 -0.039523509
H 1.428832071 1.628990501 -2.705472308
H 4.402348499 0.229754490 -1.563281814
H 2.666390088 2.012298466 0.550706066
H -1.517376209 3.674425088 1.672257973
H -2.543578866 1.012474477 3.426220787
H -1.911567409 -2.071900334 -3.015638404
H -2.764275275 -3.194523356 0.036107262
H 1.994241793 -3.301917531 0.179450623

