25

C     2.55081  -1.30221   0.56207
C     2.41794   0.10253   0.04098
O     3.15989   1.02573   0.38037
C     1.39876   0.34766  -0.97017
C     1.17793   1.63100  -1.52426
N     1.08153   2.68987  -2.00959
O     0.63761  -0.67563  -1.34330
N    -0.33819  -0.52485  -2.16504
C    -0.94483  -1.80289  -2.42621
C    -1.79734   0.45823  -0.02162
C    -2.24471  -0.96665   0.24824
O    -3.41907  -1.26122  -0.12331
O    -1.44003  -1.76027   0.81119
C    -0.95078   1.13888   0.73371
C    -0.43971   0.67369   2.08725
O    -1.34636   0.62620   2.98445
O     0.78482   0.45421   2.27355
H     3.19942  -1.29546   1.44031
H     1.57196  -1.73595   0.80324
H     3.00945  -1.89804  -0.23703
H    -2.07354  -1.64332  -2.49139
H    -0.75158  -2.54139  -1.66292
H    -0.59242  -2.06091  -3.39195
H    -2.23459   0.90104  -0.94327
H    -0.60171   2.11053   0.39038
25

C     2.55000  -1.30070   0.56169
C     2.41407   0.10533   0.04519
O     3.15898   1.02698   0.38067
C     1.38564   0.35277  -0.95658
C     1.17620   1.63253  -1.52176
N     1.08419   2.68929  -2.01149
O     0.63704  -0.67520  -1.34037
N    -0.35205  -0.51842  -2.14741
C    -0.95051  -1.79701  -2.42274
C    -1.78608   0.44818  -0.03672
C    -2.24216  -0.96988   0.24561
O    -3.41837  -1.25990  -0.12082
O    -1.43915  -1.76291   0.81183
C    -0.93375   1.12894   0.72117
C    -0.43465   0.67060   2.08163
O    -1.34736   0.62945   2.96981
O     0.78759   0.45227   2.27848
H     3.20008  -1.29559   1.43953
H     1.57214  -1.73614   0.80354
H     3.00872  -1.89668  -0.23812
H    -2.07494  -1.64238  -2.49303
H    -0.75467  -2.54071  -1.66248
H    -0.59095  -2.05736  -3.39005
H    -2.23524   0.90076  -0.94293
H    -0.60078   2.10881   0.38881
25

C     2.54918  -1.29919   0.56131
C     2.41021   0.10813   0.04940
O     3.15808   1.02822   0.38096
C     1.37252   0.35788  -0.94299
C     1.17447   1.63405  -1.51926
N     1.08685   2.68870  -2.01339
O     0.63647  -0.67476  -1.33745
N    -0.36590  -0.51199  -2.12978
C    -0.95619  -1.79112  -2.41926
C    -1.77481   0.43814  -0.05182
C    -2.23962  -0.97312   0.24299
O    -3.41768  -1.25857  -0.11834
O    -1.43827  -1.76555   0.81248
C    -0.91672   1.11901   0.70862
C    -0.42959   0.66752   2.07602
O    -1.34837   0.63270   2.95516
O     0.79037   0.45033   2.28341
H     3.20073  -1.29571   1.43875
H     1.57232  -1.73634   0.80383
H     3.00799  -1.89532  -0.23920
H    -2.07634  -1.64144  -2.49468
H    -0.75777  -2.54002  -1.66204
H    -0.58948  -2.05382  -3.38815
H    -2.23589   0.90048  -0.94260
H    -0.59985   2.10710   0.38723
25

C     2.54836  -1.29767   0.56093
C     2.40635   0.11092   0.05361
O     3.15717   1.02947   0.38126
C     1.35940   0.36298  -0.92940
C     1.17274   1.63558  -1.51676
N     1.08951   2.68811  -2.01529
O     0.63589  -0.67432  -1.33453
N    -0.37975  -0.50556  -2.11215
C    -0.96186  -1.78523  -2.41579
C    -1.76354   0.42809  -0.06693
C    -2.23707  -0.97636   0.24036
O    -3.41698  -1.25725  -0.11586
O    -1.43738  -1.76818   0.81312
C    -0.89970   1.10908   0.69608
C    -0.42453   0.66443   2.07040
O    -1.34937   0.63595   2.94052
O     0.79314   0.44839   2.28834
H     3.20139  -1.29584   1.43797
H     1.57250  -1.73653   0.80413
H     3.00726  -1.89396  -0.24029
H    -2.07773  -1.64050  -2.49632
H    -0.76086  -2.53934  -1.66159
H    -0.58801  -2.05027  -3.38625
H    -2.23654   0.90019  -0.94226
H    -0.59892   2.10539   0.38565
25

C     2.54754  -1.29616   0.56055
C     2.40249   0.11372   0.05782
O     3.15626   1.03071   0.38156
C     1.34628   0.36809  -0.91582
C     1.17101   1.63710  -1.51426
N     1.09216   2.68752  -2.01719
O     0.63532  -0.67388  -1.33160
N    -0.39361  -0.49913  -2.09452
C    -0.96754  -1.77934  -2.41232
C    -1.75227   0.41804  -0.08203
C    -2.23453  -0.97959   0.23774
O    -3.41628  -1.25592  -0.11338
O    -1.43650  -1.77082   0.81377
C    -0.88267   1.09915   0.68353
C    -0.41947   0.66135   2.06479
O    -1.35038   0.63920   2.92588
O     0.79592   0.44644   2.29327
H     3.20204  -1.29596   1.43719
H     1.57268  -1.73673   0.80442
H     3.00653  -1.89260  -0.24138
H    -2.07913  -1.63956  -2.49796
H    -0.76395  -2.53866  -1.66115
H    -0.58653  -2.04673  -3.38435
H    -2.23719   0.89991  -0.94192
H    -0.59799   2.10367   0.38407
25

C     2.54672  -1.29465   0.56017
C     2.39863   0.11652   0.06203
O     3.15536   1.03196   0.38185
C     1.33316   0.37319  -0.90223
C     1.16928   1.63863  -1.51175
N     1.09482   2.68693  -2.01908
O     0.63475  -0.67344  -1.32868
N    -0.40746  -0.49270  -2.07690
C    -0.97322  -1.77345  -2.40884
C    -1.74100   0.40800  -0.09713
C    -2.23198  -0.98283   0.23511
O    -3.41559  -1.25459  -0.11089
O    -1.43562  -1.77346   0.81441
C    -0.86564   1.08922   0.67099
C    -0.41441   0.65827   2.05917
O    -1.35138   0.64245   2.91124
O     0.79869   0.44450   2.29821
H     3.20269  -1.29609   1.43641
H     1.57286  -1.73692   0.80471
H     3.00580  -1.89124  -0.24247
H    -2.08053  -1.63862  -2.49960
H    -0.76705  -2.53797  -1.66071
H    -0.58506  -2.04318  -3.38245
H    -2.23785   0.89963  -0.94158
H    -0.59706   2.10196   0.38249
25

C     2.54590  -1.29314   0.55979
C     2.39477   0.11931   0.06624
O     3.15445   1.03320   0.38215
C     1.32004   0.37830  -0.88864
C     1.16755   1.64015  -1.50925
N     1.09748   2.68635  -2.02098
O     0.63418  -0.67300  -1.32576
N    -0.42131  -0.48627  -2.05927
C    -0.97889  -1.76756  -2.40537
C    -1.72973   0.39795  -0.11223
C    -2.22944  -0.98607   0.23249
O    -3.41489  -1.25327  -0.10841
O    -1.43474  -1.77609   0.81506
C    -0.84861   1.07929   0.65844
C    -0.40935   0.65518   2.05356
O    -1.35239   0.64570   2.89660
O     0.80147   0.44256   2.30314
H     3.20335  -1.29621   1.43562
H     1.57303  -1.73712   0.80501
H     3.00507  -1.88988  -0.24355
H    -2.08192  -1.63768  -2.50125
H    -0.77014  -2.53729  -1.66026
H    -0.58359  -2.03963  -3.38055
H    -2.23850   0.89935  -0.94125
H    -0.59613   2.10025   0.38091
25

C     2.54508  -1.29162   0.55941
C     2.39091   0.12211   0.07045
O     3.15354   1.03445   0.38245
C     1.30692   0.38340  -0.87505
C     1.16582   1.64168  -1.50675
N     1.10014   2.68576  -2.02288
O     0.63360  -0.67256  -1.32283
N    -0.43517  -0.47985  -2.04164
C    -0.98457  -1.76167  -2.40189
C    -1.71846   0.38791  -0.12733
C    -2.22690  -0.98930   0.22986
O    -3.41419  -1.25194  -0.10593
O    -1.43385  -1.77873   0.81571
C    -0.83159   1.06936   0.64590
C    -0.40429   0.65210   2.04794
O    -1.35339   0.64895   2.88196
O     0.80424   0.44062   2.30807
H     3.20400  -1.29634   1.43484
H     1.57321  -1.73731   0.80530
H     3.00434  -1.88853  -0.24464
H    -2.08332  -1.63674  -2.50289
H    -0.77324  -2.53661  -1.65982
H    -0.58212  -2.03609  -3.37865
H    -2.23915   0.89906  -0.94091
H    -0.59519   2.09853   0.37933
25

C     2.54427  -1.29011   0.55902
C     2.38705   0.12491   0.07466
O     3.15264   1.03569   0.38274
C     1.29380   0.38851  -0.86146
C     1.16410   1.64320  -1.50425
N     1.10280   2.68517  -2.02478
O     0.63303  -0.67212  -1.31991
N    -0.44902  -0.47342  -2.02401
C    -0.99025  -1.75578  -2.39842
C    -1.70720   0.37786  -0.14243
C    -2.22435  -0.99254   0.22724
O    -3.41349  -1.25061  -0.10345
O    -1.43297  -1.78137   0.81635
C    -0.81456   1.05942   0.63335
C    -0.39923   0.64901   2.04232
O    -1.35440   0.65220   2.86732
O     0.80702   0.43868   2.31300
H     3.20466  -1.29646   1.43406
H     1.57339  -1.73751   0.80560
H     3.00361  -1.88717  -0.24573
H    -2.08472  -1.63580  -2.50453
H    -0.77633  -2.53592  -1.65938
H    -0.58064  -2.03254  -3.37675
H    -2.23980   0.89878  -0.94057
H    -0.59426   2.09682   0.37776
25

C     2.54345  -1.28860   0.55864
C     2.38319   0.12770   0.07887
O     3.15173   1.03694   0.38304
C     1.28068   0.39362  -0.84787
C     1.16237   1.64473  -1.50175
N     1.10546   2.68458  -2.02668
O     0.63246  -0.67168  -1.31699
N    -0.46287  -0.46699  -2.00638
C    -0.99592  -1.74989  -2.39494
C    -1.69593   0.36782  -0.15754
C    -2.22181  -0.99578   0.22461
O    -3.41280  -1.24929  -0.10097
O    -1.43209  -1.78400   0.81700
C    -0.79753   1.04949   0.62081
C    -0.39417   0.64593   2.03671
O    -1.35540   0.65545   2.85267
O     0.80979   0.43674   2.31793
H     3.20531  -1.29659   1.43328
H     1.57357  -1.73770   0.80589
H     3.00288  -1.88581  -0.24682
H    -2.08611  -1.63486  -2.50617
H    -0.77943  -2.53524  -1.65893
H    -0.57917  -2.02900  -3.37485
H    -2.24045   0.89850  -0.94024
H    -0.59333   2.09511   0.37618
25

C     2.54263  -1.28708   0.55826
C     2.37933   0.13050   0.08308
O     3.15082   1.03818   0.38334
C     1.26755   0.39872  -0.83428
C     1.16064   1.64625  -1.49924
N     1.10812   2.68400  -2.02858
O     0.63189  -0.67125  -1.31406
N    -0.47673  -0.46056  -1.98876
C    -1.00160  -1.74400  -2.39147
C    -1.68466   0.35777  -0.17264
C    -2.21926  -0.99901   0.22199
O    -3.41210  -1.24796  -0.09848
O    -1.43121  -1.78664   0.81764
C    -0.78050   1.03956   0.60826
C    -0.38911   0.64284   2.03109
O    -1.35641   0.65870   2.83803
O     0.81257   0.43480   2.32286
H     3.20597  -1.29671   1.43250
H     1.57375  -1.73790   0.80619
H     3.00215  -1.88445  -0.24791
H    -2.08751  -1.63393  -2.50781
H    -0.78252  -2.53456  -1.65849
H    -0.57770  -2.02545  -3.37295
H    -2.24111   0.89821  -0.93990
H    -0.59240   2.09339   0.37460
25

C     2.54181  -1.28557   0.55788
C     2.37546   0.13330   0.08729
O     3.14992   1.03943   0.38363
C     1.25443   0.40383  -0.82069
C     1.15891   1.64777  -1.49674
N     1.11077   2.68341  -2.03048
O     0.63131  -0.67081  -1.31114
N    -0.49058  -0.45413  -1.97113
C    -1.00728  -1.73811  -2.38799
C    -1.67339   0.34773  -0.18774
C    -2.21672  -1.00225   0.21936
O    -3.41140  -1.24663  -0.09600
O    -1.43032  -1.78928   0.81829
C    -0.76348   1.02963   0.59572
C    -0.38405   0.63976   2.02548
O    -1.35741   0.66195   2.82339
O     0.81535   0.43285   2.32779
H     3.20662  -1.29684   1.43172
H     1.57393  -1.73809   0.80648
H     3.00142  -1.88309  -0.24899
H    -2.08891  -1.63299  -2.50946
H    -0.78561  -2.53387  -1.65805
H    -0.57623  -2.02191  -3.37105
H    -2.24176   0.89793  -0.93956
H    -0.59147   2.09168   0.37302
25

C     2.54099  -1.28406   0.55750
C     2.37160   0.13609   0.09150
O     3.14901   1.04067   0.38393
C     1.24131   0.40893  -0.80711
C     1.15718   1.64930  -1.49424
N     1.11343   2.68282  -2.03238
O     0.63074  -0.67037  -1.30822
N    -0.50443  -0.44770  -1.95350
C    -1.01295  -1.73223  -2.38452
C    -1.66212   0.33768  -0.20284
C    -2.21417  -1.00548   0.21674
O    -3.41071  -1.24531  -0.09352
O    -1.42944  -1.79191   0.81893
C    -0.74645   1.01970   0.58317
C    -0.37899   0.63667   2.01986
O    -1.35842   0.66520   2.80875
O     0.81812   0.43091   2.33272
H     3.20728  -1.29696   1.43094
H     1.57411  -1.73829   0.80677
H     3.00069  -1.88173  -0.25008
H    -2.09030  -1.63205  -2.51110
H    -0.78871  -2.53319  -1.65760
H    -0.57475  -2.01836  -3.36915
H    -2.24241   0.89765  -0.93922
H    -0.59054   2.08997   0.37144
25

C     2.54017  -1.28255   0.55712
C     2.36774   0.13889   0.09571
O     3.14810   1.04192   0.38422
C     1.22819   0.41404  -0.79352
C     1.15545   1.65082  -1.49174
N     1.11609   2.68223  -2.03428
O     0.63017  -0.66993  -1.30530
N    -0.51828  -0.44127  -1.93587
C    -1.01863  -1.72634  -2.38104
C    -1.65085   0.32763  -0.21794
C    -2.21163  -1.00872   0.21411
O    -3.41001  -1.24398  -0.09104
O    -1.42856  -1.79455   0.81958
C    -0.72942   1.00977   0.57063
C    -0.37393   0.63359   2.01425
O    -1.35942   0.66845   2.79411
O     0.82090   0.42897   2.33766
H     3.20793  -1.29709   1.43016
H     1.57428  -1.73848   0.80707
H     2.99996  -1.88037  -0.25117
H    -2.09170  -1.63111  -2.51274
H    -0.79180  -2.53251  -1.65716
H    -0.57328  -2.01481  -3.36725
H    -2.24306   0.89736  -0.93889
H    -0.58961   2.08825   0.36986
25

C     2.53935  -1.28103   0.55674
C     2.36388   0.14168   0.09992
O     3.14720   1.04316   0.38452
C     1.21507   0.41915  -0.77993
C     1.15372   1.65235  -1.48924
N     1.11875   2.68164  -2.03617
O     0.62960  -0.66949  -1.30237
N    -0.53214  -0.43485  -1.91824
C    -1.02431  -1.72045  -2.37757
C    -1.63958   0.31759  -0.23304
C    -2.20909  -1.01196   0.21149
O    -3.40931  -1.24266  -0.08855
O    -1.42767  -1.79719   0.82023
C    -0.71239   0.99984   0.55808
C    -0.36887   0.63050   2.00863
O    -1.36043   0.67170   2.77947
O     0.82367   0.42703   2.34259
H     3.20858  -1.29721   1.42938
H     1.57446  -1.73868   0.80736
H     2.99923  -1.87901  -0.25226
H    -2.09310  -1.63017  -2.51438
H    -0.79490  -2.53182  -1.65671
H    -0.57181  -2.01127  -3.36535
H    -2.24371   0.89708  -0.93855
H    -0.58867   2.08654   0.36828
25

C     2.53854  -1.27952   0.55636
C     2.36002   0.14448   0.10413
O     3.14629   1.04441   0.38482
C     1.20195   0.42425  -0.76634
C     1.15199   1.65387  -1.48674
N     1.12141   2.68106  -2.03807
O     0.62902  -0.66905  -1.29945
N    -0.54599  -0.42842  -1.90062
C    -1.02998  -1.71456  -2.37409
C    -1.62831   0.30754  -0.24814
C    -2.20654  -1.01519   0.20886
O    -3.40861  -1.24133  -0.08607
O    -1.42679  -1.79982   0.82087
C    -0.69536   0.98991   0.54554
C    -0.36381   0.62742   2.00302
O    -1.36143   0.67495   2.76483
O     0.82645   0.42509   2.34752
H     3.20924  -1.29734   1.42860
H     1.57464  -1.73887   0.80766
H     2.99850  -1.87765  -0.25335
H    -2.09449  -1.62923  -2.51603
H    -0.79799  -2.53114  -1.65627
H    -0.57034  -2.00772  -3.36345
H    -2.24436   0.89680  -0.93821
H    -0.58774   2.08483   0.36670
25

C     2.53772  -1.27801   0.55598
C     2.35616   0.14728   0.10834
O     3.14538   1.04565   0.38511
C     1.18883   0.42936  -0.75275
C     1.15026   1.65540  -1.48423
N     1.12407   2.68047  -2.03997
O     0.62845  -0.66861  -1.29653
N    -0.55984  -0.42199  -1.88299
C    -1.03566  -1.70867  -2.37062
C    -1.61705   0.29750  -0.26325
C    -2.20400  -1.01843   0.20624
O    -3.40792  -1.24000  -0.08359
O    -1.42591  -1.80246   0.82152
C    -0.67834   0.97997   0.53299
C    -0.35875   0.62433   1.99740
O    -1.36244   0.67820   2.75018
O     0.82922   0.42315   2.35245
H     3.20989  -1.29746   1.42782
H     1.57482  -1.73907   0.80795
H     2.99777  -1.87629  -0.25443
H    -2.09589  -1.62829  -2.51767
H    -0.80109  -2.53046  -1.65583
H    -0.56887  -2.00418  -3.36155
H    -2.24502   0.89651  -0.93788
H    -0.58681   2.08312   0.36513
25

C     2.53690  -1.27649   0.55560
C     2.35230   0.15007   0.11255
O     3.14448   1.04690   0.38541
C     1.17571   0.43446  -0.73916
C     1.14853   1.65692  -1.48173
N     1.12673   2.67988  -2.04187
O     0.62788  -0.66817  -1.29360
N    -0.57370  -0.41556  -1.86536
C    -1.04134  -1.70278  -2.36714
C    -1.60578   0.28745  -0.27835
C    -2.20145  -1.02167   0.20361
O    -3.40722  -1.23868  -0.08111
O    -1.42503  -1.80510   0.82216
C    -0.66131   0.97004   0.52045
C    -0.35370   0.62125   1.99179
O    -1.36344   0.68146   2.73554
O     0.83200   0.42121   2.35738
H     3.21055  -1.29759   1.42704
H     1.57500  -1.73926   0.80824
H     2.99704  -1.87493  -0.25552
H    -2.09729  -1.62735  -2.51931
H    -0.80418  -2.52977  -1.65538
H    -0.56739  -2.00063  -3.35965
H    -2.24567   0.89623  -0.93754
H    -0.58588   2.08140   0.36355
25

C     2.53608  -1.27498   0.55521
C     2.34844   0.15287   0.11676
O     3.14357   1.04814   0.38571
C     1.16259   0.43957  -0.72557
C     1.14680   1.65845  -1.47923
N     1.12938   2.67929  -2.04377
O     0.62730  -0.66774  -1.29068
N    -0.58755  -0.40913  -1.84773
C    -1.04701  -1.69689  -2.36367
C    -1.59451   0.27741  -0.29345
C    -2.19891  -1.02490   0.20099
O    -3.40652  -1.23735  -0.07862
O    -1.42414  -1.80773   0.82281
C    -0.64428   0.96011   0.50790
C    -0.34864   0.61817   1.98617
O    -1.36445   0.68471   2.72090
O     0.83477   0.41926   2.36231
H     3.21120  -1.29771   1.42626
H     1.57518  -1.73946   0.80854
H     2.99631  -1.87357  -0.25661
H    -2.09868  -1.62641  -2.52095
H    -0.80727  -2.52909  -1.65494
H    -0.56592  -1.99708  -3.35775
H    -2.24632   0.89595  -0.93720
H    -0.58495   2.07969   0.36197
25

C     2.53526  -1.27347   0.55483
C     2.34458   0.15567   0.12097
O     3.14266   1.04939   0.38600
C     1.14947   0.44467  -0.71198
C     1.14507   1.65997  -1.47673
N     1.13204   2.67871  -2.04567
O     0.62673  -0.66730  -1.28776
N    -0.60140  -0.40270  -1.83010
C    -1.05269  -1.69100  -2.36019
C    -1.58324   0.26736  -0.30855
C    -2.19637  -1.02814   0.19836
O    -3.40583  -1.23602  -0.07614
O    -1.42326  -1.81037   0.82345
C    -0.62725   0.95018   0.49536
C    -0.34358   0.61508   1.98056
O    -1.36546   0.68796   2.70626
O     0.83755   0.41732   2.36724
H     3.21186  -1.29784   1.42548
H     1.57535  -1.73965   0.80883
H     2.99559  -1.87221  -0.25770
H    -2.10008  -1.62547  -2.52260
H    -0.81037  -2.52841  -1.65450
H    -0.56445  -1.99354  -3.35585
H    -2.24697   0.89567  -0.93687
H    -0.58402   2.07798   0.36039
25

C     2.53444  -1.27196   0.55445
C     2.34072   0.15846   0.12518
O     3.14176   1.05063   0.38630
C     1.13635   0.44978  -0.69840
C     1.14334   1.66150  -1.47423
N     1.13470   2.67812  -2.04757
O     0.62616  -0.66686  -1.28483
N    -0.61526  -0.39627  -1.81248
C    -1.05837  -1.68511  -2.35672
C    -1.57197   0.25731  -0.32365
C    -2.19382  -1.03138   0.19574
O    -3.40513  -1.23470  -0.07366
O    -1.42238  -1.81301   0.82410
C    -0.61023   0.94025   0.48281
C    -0.33852   0.61200   1.97494
O    -1.36646   0.69121   2.69162
O     0.84032   0.41538   2.37218
H     3.21251  -1.29796   1.42470
H     1.57553  -1.73985   0.80913
H     2.99486  -1.87085  -0.25878
H    -2.10147  -1.62454  -2.52424
H    -0.81346  -2.52772  -1.65405
H    -0.56298  -1.98999  -3.35395
H    -2.24762   0.89538  -0.93653
H    -0.58309   2.07626   0.35881
25

C     2.53526  -1.27347   0.55483
C     2.34458   0.15567   0.12097
O     3.14266   1.04939   0.38600
C     1.14947   0.44467  -0.71198
C     1.14507   1.65997  -1.47673
N     1.13204   2.67871  -2.04567
O     0.62673  -0.66730  -1.28776
N    -0.60140  -0.40270  -1.83010
C    -1.05269  -1.69100  -2.36019
C    -1.58324   0.26736  -0.30855
C    -2.19637  -1.02814   0.19836
O    -3.40583  -1.23602  -0.07614
O    -1.42326  -1.81037   0.82345
C    -0.62725   0.95018   0.49536
C    -0.34358   0.61508   1.98056
O    -1.36546   0.68796   2.70626
O     0.83755   0.41732   2.36724
H     3.21186  -1.29784   1.42548
H     1.57535  -1.73965   0.80883
H     2.99559  -1.87221  -0.25770
H    -2.10008  -1.62547  -2.52260
H    -0.81037  -2.52841  -1.65450
H    -0.56445  -1.99354  -3.35585
H    -2.24697   0.89567  -0.93687
H    -0.58402   2.07798   0.36039
25

C     2.53608  -1.27498   0.55521
C     2.34844   0.15287   0.11676
O     3.14357   1.04814   0.38571
C     1.16259   0.43957  -0.72557
C     1.14680   1.65845  -1.47923
N     1.12938   2.67929  -2.04377
O     0.62730  -0.66774  -1.29068
N    -0.58755  -0.40913  -1.84773
C    -1.04701  -1.69689  -2.36367
C    -1.59451   0.27741  -0.29345
C    -2.19891  -1.02490   0.20099
O    -3.40652  -1.23735  -0.07862
O    -1.42414  -1.80773   0.82281
C    -0.64428   0.96011   0.50790
C    -0.34864   0.61817   1.98617
O    -1.36445   0.68471   2.72090
O     0.83477   0.41926   2.36231
H     3.21120  -1.29771   1.42626
H     1.57518  -1.73946   0.80854
H     2.99631  -1.87357  -0.25661
H    -2.09868  -1.62641  -2.52095
H    -0.80727  -2.52909  -1.65494
H    -0.56592  -1.99708  -3.35775
H    -2.24632   0.89595  -0.93720
H    -0.58495   2.07969   0.36197
25

C     2.53690  -1.27649   0.55560
C     2.35230   0.15007   0.11255
O     3.14448   1.04690   0.38541
C     1.17571   0.43446  -0.73916
C     1.14853   1.65692  -1.48173
N     1.12673   2.67988  -2.04187
O     0.62788  -0.66817  -1.29360
N    -0.57370  -0.41556  -1.86536
C    -1.04134  -1.70278  -2.36714
C    -1.60578   0.28745  -0.27835
C    -2.20145  -1.02167   0.20361
O    -3.40722  -1.23868  -0.08111
O    -1.42503  -1.80510   0.82216
C    -0.66131   0.97004   0.52045
C    -0.35370   0.62125   1.99179
O    -1.36344   0.68146   2.73554
O     0.83200   0.42121   2.35738
H     3.21055  -1.29759   1.42704
H     1.57500  -1.73926   0.80824
H     2.99704  -1.87493  -0.25552
H    -2.09729  -1.62735  -2.51931
H    -0.80418  -2.52977  -1.65538
H    -0.56739  -2.00063  -3.35965
H    -2.24567   0.89623  -0.93754
H    -0.58588   2.08140   0.36355
25

C     2.53772  -1.27801   0.55598
C     2.35616   0.14728   0.10834
O     3.14538   1.04565   0.38511
C     1.18883   0.42936  -0.75275
C     1.15026   1.65540  -1.48423
N     1.12407   2.68047  -2.03997
O     0.62845  -0.66861  -1.29653
N    -0.55984  -0.42199  -1.88299
C    -1.03566  -1.70867  -2.37062
C    -1.61705   0.29750  -0.26325
C    -2.20400  -1.01843   0.20624
O    -3.40792  -1.24000  -0.08359
O    -1.42591  -1.80246   0.82152
C    -0.67834   0.97997   0.53299
C    -0.35875   0.62433   1.99740
O    -1.36244   0.67820   2.75018
O     0.82922   0.42315   2.35245
H     3.20989  -1.29746   1.42782
H     1.57482  -1.73907   0.80795
H     2.99777  -1.87629  -0.25443
H    -2.09589  -1.62829  -2.51767
H    -0.80109  -2.53046  -1.65583
H    -0.56887  -2.00418  -3.36155
H    -2.24502   0.89651  -0.93788
H    -0.58681   2.08312   0.36513
25

C     2.53854  -1.27952   0.55636
C     2.36002   0.14448   0.10413
O     3.14629   1.04441   0.38482
C     1.20195   0.42425  -0.76634
C     1.15199   1.65387  -1.48674
N     1.12141   2.68106  -2.03807
O     0.62902  -0.66905  -1.29945
N    -0.54599  -0.42842  -1.90062
C    -1.02998  -1.71456  -2.37409
C    -1.62831   0.30754  -0.24814
C    -2.20654  -1.01519   0.20886
O    -3.40861  -1.24133  -0.08607
O    -1.42679  -1.79982   0.82087
C    -0.69536   0.98991   0.54554
C    -0.36381   0.62742   2.00302
O    -1.36143   0.67495   2.76483
O     0.82645   0.42509   2.34752
H     3.20924  -1.29734   1.42860
H     1.57464  -1.73887   0.80766
H     2.99850  -1.87765  -0.25335
H    -2.09449  -1.62923  -2.51603
H    -0.79799  -2.53114  -1.65627
H    -0.57034  -2.00772  -3.36345
H    -2.24436   0.89680  -0.93821
H    -0.58774   2.08483   0.36670
25

C     2.53935  -1.28103   0.55674
C     2.36388   0.14168   0.09992
O     3.14720   1.04316   0.38452
C     1.21507   0.41915  -0.77993
C     1.15372   1.65235  -1.48924
N     1.11875   2.68164  -2.03617
O     0.62960  -0.66949  -1.30237
N    -0.53214  -0.43485  -1.91824
C    -1.02431  -1.72045  -2.37757
C    -1.63958   0.31759  -0.23304
C    -2.20909  -1.01196   0.21149
O    -3.40931  -1.24266  -0.08855
O    -1.42767  -1.79719   0.82023
C    -0.71239   0.99984   0.55808
C    -0.36887   0.63050   2.00863
O    -1.36043   0.67170   2.77947
O     0.82367   0.42703   2.34259
H     3.20858  -1.29721   1.42938
H     1.57446  -1.73868   0.80736
H     2.99923  -1.87901  -0.25226
H    -2.09310  -1.63017  -2.51438
H    -0.79490  -2.53182  -1.65671
H    -0.57181  -2.01127  -3.36535
H    -2.24371   0.89708  -0.93855
H    -0.58867   2.08654   0.36828
25

C     2.54017  -1.28255   0.55712
C     2.36774   0.13889   0.09571
O     3.14810   1.04192   0.38422
C     1.22819   0.41404  -0.79352
C     1.15545   1.65082  -1.49174
N     1.11609   2.68223  -2.03428
O     0.63017  -0.66993  -1.30530
N    -0.51828  -0.44127  -1.93587
C    -1.01863  -1.72634  -2.38104
C    -1.65085   0.32763  -0.21794
C    -2.21163  -1.00872   0.21411
O    -3.41001  -1.24398  -0.09104
O    -1.42856  -1.79455   0.81958
C    -0.72942   1.00977   0.57063
C    -0.37393   0.63359   2.01425
O    -1.35942   0.66845   2.79411
O     0.82090   0.42897   2.33766
H     3.20793  -1.29709   1.43016
H     1.57428  -1.73848   0.80707
H     2.99996  -1.88037  -0.25117
H    -2.09170  -1.63111  -2.51274
H    -0.79180  -2.53251  -1.65716
H    -0.57328  -2.01481  -3.36725
H    -2.24306   0.89736  -0.93889
H    -0.58961   2.08825   0.36986
25

C     2.54099  -1.28406   0.55750
C     2.37160   0.13609   0.09150
O     3.14901   1.04067   0.38393
C     1.24131   0.40893  -0.80711
C     1.15718   1.64930  -1.49424
N     1.11343   2.68282  -2.03238
O     0.63074  -0.67037  -1.30822
N    -0.50443  -0.44770  -1.95350
C    -1.01295  -1.73223  -2.38452
C    -1.66212   0.33768  -0.20284
C    -2.21417  -1.00548   0.21674
O    -3.41071  -1.24531  -0.09352
O    -1.42944  -1.79191   0.81893
C    -0.74645   1.01970   0.58317
C    -0.37899   0.63667   2.01986
O    -1.35842   0.66520   2.80875
O     0.81812   0.43091   2.33272
H     3.20728  -1.29696   1.43094
H     1.57411  -1.73829   0.80677
H     3.00069  -1.88173  -0.25008
H    -2.09030  -1.63205  -2.51110
H    -0.78871  -2.53319  -1.65760
H    -0.57475  -2.01836  -3.36915
H    -2.24241   0.89765  -0.93922
H    -0.59054   2.08997   0.37144
25

C     2.54181  -1.28557   0.55788
C     2.37546   0.13330   0.08729
O     3.14992   1.03943   0.38363
C     1.25443   0.40383  -0.82069
C     1.15891   1.64777  -1.49674
N     1.11077   2.68341  -2.03048
O     0.63131  -0.67081  -1.31114
N    -0.49058  -0.45413  -1.97113
C    -1.00728  -1.73811  -2.38799
C    -1.67339   0.34773  -0.18774
C    -2.21672  -1.00225   0.21936
O    -3.41140  -1.24663  -0.09600
O    -1.43032  -1.78928   0.81829
C    -0.76348   1.02963   0.59572
C    -0.38405   0.63976   2.02548
O    -1.35741   0.66195   2.82339
O     0.81535   0.43285   2.32779
H     3.20662  -1.29684   1.43172
H     1.57393  -1.73809   0.80648
H     3.00142  -1.88309  -0.24899
H    -2.08891  -1.63299  -2.50946
H    -0.78561  -2.53387  -1.65805
H    -0.57623  -2.02191  -3.37105
H    -2.24176   0.89793  -0.93956
H    -0.59147   2.09168   0.37302
25

C     2.54263  -1.28708   0.55826
C     2.37933   0.13050   0.08308
O     3.15082   1.03818   0.38334
C     1.26755   0.39872  -0.83428
C     1.16064   1.64625  -1.49924
N     1.10812   2.68400  -2.02858
O     0.63189  -0.67125  -1.31406
N    -0.47673  -0.46056  -1.98876
C    -1.00160  -1.74400  -2.39147
C    -1.68466   0.35777  -0.17264
C    -2.21926  -0.99901   0.22199
O    -3.41210  -1.24796  -0.09848
O    -1.43121  -1.78664   0.81764
C    -0.78050   1.03956   0.60826
C    -0.38911   0.64284   2.03109
O    -1.35641   0.65870   2.83803
O     0.81257   0.43480   2.32286
H     3.20597  -1.29671   1.43250
H     1.57375  -1.73790   0.80619
H     3.00215  -1.88445  -0.24791
H    -2.08751  -1.63393  -2.50781
H    -0.78252  -2.53456  -1.65849
H    -0.57770  -2.02545  -3.37295
H    -2.24111   0.89821  -0.93990
H    -0.59240   2.09339   0.37460
25

C     2.54345  -1.28860   0.55864
C     2.38319   0.12770   0.07887
O     3.15173   1.03694   0.38304
C     1.28068   0.39362  -0.84787
C     1.16237   1.64473  -1.50175
N     1.10546   2.68458  -2.02668
O     0.63246  -0.67168  -1.31699
N    -0.46287  -0.46699  -2.00638
C    -0.99592  -1.74989  -2.39494
C    -1.69593   0.36782  -0.15754
C    -2.22181  -0.99578   0.22461
O    -3.41280  -1.24929  -0.10097
O    -1.43209  -1.78400   0.81700
C    -0.79753   1.04949   0.62081
C    -0.39417   0.64593   2.03671
O    -1.35540   0.65545   2.85267
O     0.80979   0.43674   2.31793
H     3.20531  -1.29659   1.43328
H     1.57357  -1.73770   0.80589
H     3.00288  -1.88581  -0.24682
H    -2.08611  -1.63486  -2.50617
H    -0.77943  -2.53524  -1.65893
H    -0.57917  -2.02900  -3.37485
H    -2.24045   0.89850  -0.94024
H    -0.59333   2.09511   0.37618
25

C     2.54427  -1.29011   0.55902
C     2.38705   0.12491   0.07466
O     3.15264   1.03569   0.38274
C     1.29380   0.38851  -0.86146
C     1.16410   1.64320  -1.50425
N     1.10280   2.68517  -2.02478
O     0.63303  -0.67212  -1.31991
N    -0.44902  -0.47342  -2.02401
C    -0.99025  -1.75578  -2.39842
C    -1.70720   0.37786  -0.14243
C    -2.22435  -0.99254   0.22724
O    -3.41349  -1.25061  -0.10345
O    -1.43297  -1.78137   0.81635
C    -0.81456   1.05942   0.63335
C    -0.39923   0.64901   2.04232
O    -1.35440   0.65220   2.86732
O     0.80702   0.43868   2.31300
H     3.20466  -1.29646   1.43406
H     1.57339  -1.73751   0.80560
H     3.00361  -1.88717  -0.24573
H    -2.08472  -1.63580  -2.50453
H    -0.77633  -2.53592  -1.65938
H    -0.58064  -2.03254  -3.37675
H    -2.23980   0.89878  -0.94057
H    -0.59426   2.09682   0.37776
25

C     2.54508  -1.29162   0.55941
C     2.39091   0.12211   0.07045
O     3.15354   1.03445   0.38245
C     1.30692   0.38340  -0.87505
C     1.16582   1.64168  -1.50675
N     1.10014   2.68576  -2.02288
O     0.63360  -0.67256  -1.32283
N    -0.43517  -0.47985  -2.04164
C    -0.98457  -1.76167  -2.40189
C    -1.71846   0.38791  -0.12733
C    -2.22690  -0.98930   0.22986
O    -3.41419  -1.25194  -0.10593
O    -1.43385  -1.77873   0.81571
C    -0.83159   1.06936   0.64590
C    -0.40429   0.65210   2.04794
O    -1.35339   0.64895   2.88196
O     0.80424   0.44062   2.30807
H     3.20400  -1.29634   1.43484
H     1.57321  -1.73731   0.80530
H     3.00434  -1.88853  -0.24464
H    -2.08332  -1.63674  -2.50289
H    -0.77324  -2.53661  -1.65982
H    -0.58212  -2.03609  -3.37865
H    -2.23915   0.89906  -0.94091
H    -0.59519   2.09853   0.37933
25

C     2.54590  -1.29314   0.55979
C     2.39477   0.11931   0.06624
O     3.15445   1.03320   0.38215
C     1.32004   0.37830  -0.88864
C     1.16755   1.64015  -1.50925
N     1.09748   2.68635  -2.02098
O     0.63418  -0.67300  -1.32576
N    -0.42131  -0.48627  -2.05927
C    -0.97889  -1.76756  -2.40537
C    -1.72973   0.39795  -0.11223
C    -2.22944  -0.98607   0.23249
O    -3.41489  -1.25327  -0.10841
O    -1.43474  -1.77609   0.81506
C    -0.84861   1.07929   0.65844
C    -0.40935   0.65518   2.05356
O    -1.35239   0.64570   2.89660
O     0.80147   0.44256   2.30314
H     3.20335  -1.29621   1.43562
H     1.57303  -1.73712   0.80501
H     3.00507  -1.88988  -0.24355
H    -2.08192  -1.63768  -2.50125
H    -0.77014  -2.53729  -1.66026
H    -0.58359  -2.03963  -3.38055
H    -2.23850   0.89935  -0.94125
H    -0.59613   2.10025   0.38091
25

C     2.54672  -1.29465   0.56017
C     2.39863   0.11652   0.06203
O     3.15536   1.03196   0.38185
C     1.33316   0.37319  -0.90223
C     1.16928   1.63863  -1.51175
N     1.09482   2.68693  -2.01908
O     0.63475  -0.67344  -1.32868
N    -0.40746  -0.49270  -2.07690
C    -0.97322  -1.77345  -2.40884
C    -1.74100   0.40800  -0.09713
C    -2.23198  -0.98283   0.23511
O    -3.41559  -1.25459  -0.11089
O    -1.43562  -1.77346   0.81441
C    -0.86564   1.08922   0.67099
C    -0.41441   0.65827   2.05917
O    -1.35138   0.64245   2.91124
O     0.79869   0.44450   2.29821
H     3.20269  -1.29609   1.43641
H     1.57286  -1.73692   0.80471
H     3.00580  -1.89124  -0.24247
H    -2.08053  -1.63862  -2.49960
H    -0.76705  -2.53797  -1.66071
H    -0.58506  -2.04318  -3.38245
H    -2.23785   0.89963  -0.94158
H    -0.59706   2.10196   0.38249
25

C     2.54754  -1.29616   0.56055
C     2.40249   0.11372   0.05782
O     3.15626   1.03071   0.38156
C     1.34628   0.36809  -0.91582
C     1.17101   1.63710  -1.51426
N     1.09216   2.68752  -2.01719
O     0.63532  -0.67388  -1.33160
N    -0.39361  -0.49913  -2.09452
C    -0.96754  -1.77934  -2.41232
C    -1.75227   0.41804  -0.08203
C    -2.23453  -0.97959   0.23774
O    -3.41628  -1.25592  -0.11338
O    -1.43650  -1.77082   0.81377
C    -0.88267   1.09915   0.68353
C    -0.41947   0.66135   2.06479
O    -1.35038   0.63920   2.92588
O     0.79592   0.44644   2.29327
H     3.20204  -1.29596   1.43719
H     1.57268  -1.73673   0.80442
H     3.00653  -1.89260  -0.24138
H    -2.07913  -1.63956  -2.49796
H    -0.76395  -2.53866  -1.66115
H    -0.58653  -2.04673  -3.38435
H    -2.23719   0.89991  -0.94192
H    -0.59799   2.10367   0.38407
25

C     2.54836  -1.29767   0.56093
C     2.40635   0.11092   0.05361
O     3.15717   1.02947   0.38126
C     1.35940   0.36298  -0.92940
C     1.17274   1.63558  -1.51676
N     1.08951   2.68811  -2.01529
O     0.63589  -0.67432  -1.33453
N    -0.37975  -0.50556  -2.11215
C    -0.96186  -1.78523  -2.41579
C    -1.76354   0.42809  -0.06693
C    -2.23707  -0.97636   0.24036
O    -3.41698  -1.25725  -0.11586
O    -1.43738  -1.76818   0.81312
C    -0.89970   1.10908   0.69608
C    -0.42453   0.66443   2.07040
O    -1.34937   0.63595   2.94052
O     0.79314   0.44839   2.28834
H     3.20139  -1.29584   1.43797
H     1.57250  -1.73653   0.80413
H     3.00726  -1.89396  -0.24029
H    -2.07773  -1.64050  -2.49632
H    -0.76086  -2.53934  -1.66159
H    -0.58801  -2.05027  -3.38625
H    -2.23654   0.90019  -0.94226
H    -0.59892   2.10539   0.38565
25

C     2.54918  -1.29919   0.56131
C     2.41021   0.10813   0.04940
O     3.15808   1.02822   0.38096
C     1.37252   0.35788  -0.94299
C     1.17447   1.63405  -1.51926
N     1.08685   2.68870  -2.01339
O     0.63647  -0.67476  -1.33745
N    -0.36590  -0.51199  -2.12978
C    -0.95619  -1.79112  -2.41926
C    -1.77481   0.43814  -0.05182
C    -2.23962  -0.97312   0.24299
O    -3.41768  -1.25857  -0.11834
O    -1.43827  -1.76555   0.81248
C    -0.91672   1.11901   0.70862
C    -0.42959   0.66752   2.07602
O    -1.34837   0.63270   2.95516
O     0.79037   0.45033   2.28341
H     3.20073  -1.29571   1.43875
H     1.57232  -1.73634   0.80383
H     3.00799  -1.89532  -0.23920
H    -2.07634  -1.64144  -2.49468
H    -0.75777  -2.54002  -1.66204
H    -0.58948  -2.05382  -3.38815
H    -2.23589   0.90048  -0.94260
H    -0.59985   2.10710   0.38723
25

C     2.55000  -1.30070   0.56169
C     2.41407   0.10533   0.04519
O     3.15898   1.02698   0.38067
C     1.38564   0.35277  -0.95658
C     1.17620   1.63253  -1.52176
N     1.08419   2.68929  -2.01149
O     0.63704  -0.67520  -1.34037
N    -0.35205  -0.51842  -2.14741
C    -0.95051  -1.79701  -2.42274
C    -1.78608   0.44818  -0.03672
C    -2.24216  -0.96988   0.24561
O    -3.41837  -1.25990  -0.12082
O    -1.43915  -1.76291   0.81183
C    -0.93375   1.12894   0.72117
C    -0.43465   0.67060   2.08163
O    -1.34736   0.62945   2.96981
O     0.78759   0.45227   2.27848
H     3.20008  -1.29559   1.43953
H     1.57214  -1.73614   0.80354
H     3.00872  -1.89668  -0.23812
H    -2.07494  -1.64238  -2.49303
H    -0.75467  -2.54071  -1.66248
H    -0.59095  -2.05736  -3.39005
H    -2.23524   0.90076  -0.94293
H    -0.60078   2.10881   0.38881
