14

C -3.216244171 -1.914212100 -0.480651273
C -1.641633581 0.394230809 -1.082737839
C -0.207751426 1.851153318 0.865058265
N -0.418400255 3.110932965 3.184859826
C 1.162761902 0.415917325 -0.575527581
O 1.416514987 4.334279260 3.759421700
C 3.539990312 -0.911514876 -1.118257132
H -2.441930649 -2.933100496 1.138857905
H -5.156621702 -1.383330338 -0.022178223
H -3.285847830 -3.206328494 -2.089544045
H -2.318849442 1.482706367 -2.696350278
H 5.030225783 -0.355981070 0.186876849
H 4.145083905 -0.496978393 -3.047962604
H 3.248060620 -2.952092924 -0.999832058

