14

C -3.359961924 -1.446969341 0.016077223
C -1.482636693 0.317164716 -1.210766822
C -0.354433120 2.636563104 0.092936787
N -0.459799827 2.731497257 2.647283426
C 1.198561497 0.529232106 -0.380413982
O 1.006790691 0.956094933 3.380345285
C 3.687380068 -0.477679735 -1.036366096
H -3.072667013 -1.565257201 2.049647580
H -5.275519056 -0.775164617 -0.335591077
H -3.189059421 -3.339777363 -0.787560578
H -1.710042366 0.472434763 -3.253467146
H 5.220017402 0.606222780 -0.198600181
H 3.860626417 -0.461003866 -3.098373657
H 3.808706740 -2.451008081 -0.446657538

