13

C -1.739809143 1.460810262 -1.754858847
C -0.562547695 -0.915280647 -0.656228543
O 0.384104164 -2.389600618 -2.680577642
H 0.695931953 -4.080910393 -2.106672617
C 1.574322879 -0.224710659 1.139392036
O 1.271489297 0.203540776 3.343252380
C 4.219561791 -0.049875277 -0.063609051
O 6.036308639 -0.967400106 0.917884992
H 4.337813879 0.984017469 -1.878526700
H -1.977141945 -1.951500988 0.443091133
H -3.297481343 0.944198087 -2.998681231
H -2.449160382 2.671540366 -0.246961920
H -0.356376155 2.514274070 -2.864355340

