15

C -1.815821903 1.476305279 -2.142998010
C -1.239528718 -0.926815384 -0.713214840
O -0.072012228 -2.666769318 -2.339483248
C 0.641446803 -0.619620088 1.484300351
O 1.328046986 -2.767753089 2.608847757
C 2.834936159 1.210567210 1.090020825
O 3.042701342 3.191923112 2.161303787
H -3.186856549 1.090884127 -3.629201486
H -2.602358287 2.912333710 -0.886267833
H -0.112850136 2.234937060 -3.024531550
H -2.975757057 -1.727639439 0.098759147
H 0.513896336 -4.039518683 -1.283905214
H -0.723094706 0.852936163 3.095355386
H -0.127816880 -0.702973942 3.754225690
H 4.281970110 0.448766094 -0.210041018

