15

C -4.183083614 -0.277495586 -0.619706902
C -1.807551535 0.960588834 0.456521265
C -0.456196762 2.604084344 -1.465643576
N 1.890388266 1.782987855 -1.331675525
C 2.334958487 -0.255810374 0.376627330
N 4.801453516 -1.094997797 0.659930082
C 0.150833423 -0.832165635 1.481646533
H -3.699346778 -1.574890080 -2.148736239
H -5.173952494 -1.351234209 0.836494658
H -5.460055309 1.154143012 -1.369577724
H -2.395279547 2.312052021 1.924148752
H 3.312695452 2.570445064 -2.327135097
H 4.955325052 -2.578113252 1.842443155
H 5.698167509 -1.450730104 -0.985782171
H -0.162167868 -2.309772558 2.852709544

