15

C -4.493631549 -0.196172866 -0.329256847
C -1.725912816 0.384942087 -0.122101063
C -0.518071913 2.434467856 -1.471261581
N 1.997236801 1.912265965 -1.036358764
C 2.430417190 -0.298038307 0.254269359
N 4.873251052 -1.024525809 0.838576475
C 0.162482583 -1.327909943 0.875675824
H -4.788888973 -1.660061869 -1.751410266
H -5.273777012 -0.879132737 1.453694290
H -5.528458860 1.481676032 -0.926257253
H -1.590055189 2.544340898 0.880058817
H 3.375835454 3.131154301 -1.501879850
H 5.003223278 -2.800904554 1.504622976
H 6.148273004 -0.704168457 -0.538963346
H -0.154218735 -3.061170392 1.900564157

