13

O 2.691146899 3.391213346 0.807175463
C 3.565417975 1.311207202 -0.161820120
C 1.887704685 -0.948009645 -0.181893982
C -0.730609259 -0.540610695 0.852389995
C -2.812361964 0.346848704 -0.774233039
N -2.649407648 -2.309915194 -0.042808552
H 4.743719359 3.357641341 0.013375141
H 2.894393331 -2.434210154 0.853978839
H 1.802354051 -1.641475015 -2.130035245
H -0.817994768 0.033701546 2.819320086
H -2.457700621 0.716862352 -2.758150219
H -4.260777738 1.521366951 0.072648990
H -3.907589079 -2.709949239 1.340134241

