14

O -1.963580949 -0.803387393 2.837057434
C -1.500488709 0.090078350 0.512684682
C -0.367546213 2.752723114 0.364476070
O 2.128903148 2.401914111 0.705430359
C 3.887415836 -0.851241041 -0.134069379
N 2.890704207 -2.585931899 -1.066975728
C -1.173969451 -1.563178521 -1.519092250
H -1.416574003 -2.532974006 2.988469018
H -3.395528762 -0.202702985 -1.009739155
H -0.907591427 3.574030535 -1.486795451
H -1.273712673 3.901230282 1.847740775
H 5.481137736 0.119777645 0.651919533
H -0.738413734 -0.774916364 -3.349769913
H -1.635249784 -3.547089389 -1.361754503

