16

C -4.066749617 1.009376139 -0.004389324
C -1.254728296 -2.104654673 -0.837568438
C 0.787299002 -1.375194613 0.863167821
C 3.413946449 -1.701490732 -0.295853557
C 2.573036918 0.848067567 0.429002261
O 2.137986986 2.534293073 -1.539120172
H -3.529385887 2.135815463 -1.628281665
H -3.343281992 1.776848815 1.756200514
H -6.113049491 0.777628026 0.064278770
H -3.511011249 -1.234761563 -0.134753101
H -0.954457240 -1.288026158 -2.715934795
H 0.632599143 -1.982425241 2.816426235
H 4.824913861 -2.664259214 0.824313597
H 3.477249855 -2.099050577 -2.301504307
H 3.387582483 1.679822679 2.121918682
H 0.890007166 3.735256034 -1.004061152

