11

C -2.918921106 0.266173688 0.435575560
N -0.689797486 0.274913105 1.705246638
N 0.753726033 2.207569838 0.919431657
C 1.964195526 0.990839626 -0.970109936
C 2.178631347 -1.680923671 -0.189776275
N 0.517304779 -2.142366785 1.487434519
H -4.183347647 -1.304533464 0.795420497
H -0.502967899 0.362874924 -2.129083787
H -3.687009342 2.106349758 -0.010940739
H 3.341963530 1.957217183 -2.131749812
H 3.402832270 -3.122422425 -0.955979320

