12

C -3.756296509 1.391774844 0.615660923
C -1.748080286 1.452577368 -1.445193471
C -1.240522487 -1.149912879 -2.549353737
O 0.692766019 -1.152247994 -4.394308375
H 0.190703167 -0.066075748 -5.754831080
H -2.997738749 -1.944291211 -3.321378800
H -0.597001899 -2.433541512 -1.065628864
H 0.025128085 2.210702532 -0.703832464
H -2.346177111 2.726718725 -2.965327791
H -5.547421109 0.657101899 -0.103403773
H -3.173961927 0.186708777 2.187840550
H -4.111796096 3.276411841 1.371042583

