13

O 4.782193409 -0.624004460 1.801575976
C 2.333024107 -0.514227946 1.665755350
C -2.682783028 -1.508624849 -0.510215566
N -1.162360561 0.587861634 -1.411640231
C -2.919846864 1.025403416 0.646758539
C 1.505524810 0.563065102 -0.823202835
H 5.659625468 -0.037182327 0.278822476
H -1.751750757 -2.940129370 0.627218677
H -4.101129915 -2.187727657 -1.821768493
H -2.142705178 1.236283548 2.533056852
H -4.513285362 2.227829630 0.190100760
H 2.499531504 -0.432424895 -2.359590047
H 2.190495048 2.529268008 -0.856102192

