14

C -3.126529593 -0.161222986 0.832394084
C -0.521072401 0.974926942 0.563095677
C 1.750502045 1.787640549 -2.657512533
C 1.302942485 -0.532222333 -1.342860114
C 2.840738885 -1.028040227 1.051677942
O 1.157256373 0.452089083 2.586833979
H -3.019215429 -2.179771873 1.229370609
H -4.115317374 0.765130152 2.386950503
H -4.213496829 0.133457580 -0.896187667
H -0.660131621 3.021560768 0.229268395
H 0.258521469 1.924211548 -4.119429229
H 0.374217022 -2.140365603 -2.237103442
H 4.738695315 -0.223243344 1.022047641
H 2.888664701 -2.994517937 1.681802866

