14

C -3.196463897 -0.091622256 0.788752523
C -0.481616753 0.680391072 0.477324240
C 1.395586705 1.944504466 -2.293631084
C 1.348497772 -0.657213752 -1.312310953
C 2.961629540 -1.048733559 1.047066538
O 1.169411338 0.367159216 2.553989386
H -3.307490995 -2.048215943 1.426586471
H -4.133997071 1.109319918 2.176315904
H -4.190752709 0.088038164 -1.007791018
H -0.353514827 2.805527807 -0.132026850
H -0.142924295 2.034326758 -3.705320825
H 0.679982022 -2.242722940 -2.427865720
H 4.813556853 -0.145879487 1.016849609
H 3.093871365 -2.995243327 1.722412362

