15

C -1.642817004 2.175059009 0.307481571
C -0.531091805 -0.398075343 -0.213605004
C 2.114166572 -0.427423414 -1.172406119
C 3.735763369 1.580080553 -0.926633177
N 5.264435887 3.192891030 -0.429181388
C -1.488255945 -2.593420109 1.249708975
N -2.118947182 -2.314190492 -1.422149583
H -0.527162422 3.203239624 1.706673589
H -1.693369672 3.308831850 -1.416498017
H -3.563542290 2.006094477 1.038981741
H 2.823169742 -2.095440614 -2.114900013
H 4.611123438 0.696386017 0.905413707
H -2.943464850 -2.244085470 2.652403186
H -0.229865870 -4.151688404 1.678833766
H -3.905584476 -1.662358699 -1.642071828

