10

O 2.675990766 3.116611309 -0.714197574
C 1.057063283 1.206499632 -0.161091801
C 0.935910674 -0.211687442 1.957495369
N -1.213580700 -1.873056454 1.261384100
N -2.266070185 -1.356710654 -1.251104689
C -0.847660955 0.472112980 -1.983072227
H 3.782911544 3.304610240 0.714022774
H -0.672371018 -3.721018270 1.289730105
H -2.646745724 -1.687986674 2.534010729
H -1.151575573 1.304834762 -3.828450655

