11

C -2.219616748 -0.653604337 -0.149091114
C 0.012484230 0.090820653 1.368229669
C 2.442962723 -0.397596468 -0.071435786
O 1.671660441 1.412448958 -1.961546111
C -0.322244130 2.305905271 -0.478663186
H -4.019736935 -0.625487234 0.828464777
H -1.983628600 -2.038002710 -1.640078280
H -0.126585270 0.220709675 3.403161990
H 2.747390931 -2.285309959 -0.849662931
H 4.143523539 0.257181578 0.891672979
H -2.458454263 1.585387527 -1.374719385

