12

N 4.009350641 -1.151282099 -0.409412680
C 1.692449602 -0.588213709 -0.172713050
C 0.346980437 1.957000715 -0.004229642
C -2.392240036 1.237066859 0.267854619
C -2.554408792 -1.271905434 0.252398530
N -0.186630467 -2.386371699 -0.009819093
H 5.088054010 0.429829753 -0.495393045
H 1.065656340 3.031930584 1.606869405
H 0.725190432 3.072245982 -1.701765517
H -3.947707057 2.539882637 0.443895835
H -4.216537719 -2.446770313 0.404309380
H 0.181879129 -4.244286117 -0.047121190

