16

C 0.738445141 4.000094876 1.481767495
C -1.110750025 -0.589333221 -2.865653450
C -0.627931840 -2.081745051 -0.513296216
C -1.746646739 -4.640587008 -0.149618839
C 0.864922753 -0.791552341 1.066458435
C 1.530012637 1.702445989 -0.062498156
N 0.160441698 1.503706440 -2.453498003
H -1.284758614 3.933207680 1.872265811
H 1.159807541 5.749869093 0.473072715
H 1.754299431 4.044386258 3.274443578
H -1.205939573 -5.472016539 1.657109494
H -1.148468958 -5.903015087 -1.668468448
H -3.805706668 -4.536096454 -0.246318638
H 1.537194031 -1.384480690 2.906383964
H 3.562913937 1.798960576 -0.460123159
H 0.210159182 2.918592634 -3.725519843

