13

C -4.407921131 0.734874541 0.270388704
O -2.563681300 -1.224093076 0.192870891
C -0.148205400 -0.550722563 0.001967016
N 0.554116568 2.049188906 0.002581385
N 2.890552613 2.258941986 -0.181205441
C 4.039426559 -0.246327123 -0.331935704
C 1.891606326 -2.026690564 -0.196576247
H -6.219452940 -0.226009147 0.407738893
H -4.130770288 1.957576344 1.906048502
H -4.349527460 1.878563380 -1.444146430
H 5.124786261 -0.328178210 -2.091950801
H 5.401833981 -0.406420393 1.217080775
H 1.965342967 -4.059801416 -0.248725696

