13

C -1.643701906 -0.596737338 2.330465928
C -1.177246274 -1.397415865 -0.391061568
N -2.172564363 -0.190629109 -2.384608566
C 1.083177238 -0.002052016 -1.927324229
C 2.280958335 2.008842894 -0.321639739
O 4.470752824 1.960799537 0.241210860
H -2.090348010 1.407563468 2.472148844
H -0.048110084 -1.056978869 3.556081859
H -3.275431414 -1.659847499 3.009320313
H -0.786020942 -3.444202060 -0.519865452
H 0.357453904 0.954987459 -3.660660153
H 2.358253028 -1.491760801 -2.545001943
H 1.009381638 3.567107750 0.242850556

