11

N 3.088311092 0.840155076 -0.574439269
C 2.177880654 -0.451265937 -2.526852409
O -0.009355902 -1.628521188 -2.071926922
C -1.262970657 -1.509370082 0.311787123
C -2.445623759 1.056474936 0.769862423
O -2.612271299 1.999478905 2.823192759
H 2.331459489 1.009805560 1.175554327
H 4.730096853 1.746678222 -0.858550181
H -0.043069958 -2.041954921 1.891931605
H -2.788982971 -2.894210311 0.190160816
H -3.184247971 2.000356134 -0.947188162

