11

N 2.758648294 1.176114007 0.253542060
C 2.212266091 0.147213331 -2.007065947
O 0.189595447 -1.323242301 -2.020043112
C -1.368853373 -1.505044423 0.190261840
C -2.682563989 0.953300047 0.840860568
O -3.826142846 1.234981073 2.770646241
H 4.185852857 2.441235645 -0.017837843
H 4.232113314 -0.463840364 -0.866668350
H -0.308578746 -2.162098568 1.829678320
H -2.805971099 -2.901606056 -0.291881523
H -2.578999817 2.452538097 -0.619749251

