14

C -1.500224582 -0.753957525 1.617384937
C -1.281042524 0.373103010 -1.056288212
C 0.680838219 2.469216952 -0.502580808
O 2.325852086 1.312294871 1.289204610
C 1.349790175 -1.174187299 1.681145374
N 1.845346039 -2.639599157 -0.647060272
C 0.297102099 -1.696635383 -2.224458888
H -2.592953611 -2.495450244 1.674779283
H -2.150196582 0.572690384 3.052097684
H -2.976108943 0.977831016 -2.044299920
H -0.204704828 4.136178628 0.338284125
H 1.747136330 3.039864013 -2.176611400
H 2.237962549 -1.979798087 3.344045555
H 0.274170745 -2.250826463 -4.202533091

