14

C -0.855708788 2.447399346 0.830150658
N -0.374630494 -0.204915778 0.559450207
C -2.290111639 -1.680708412 1.778483107
C 2.616265481 -0.796425926 -3.401291558
C 3.726911494 -0.764220722 -1.099025937
N 4.097950129 -0.655777446 1.086173909
H -2.649611096 2.968903984 -0.080197256
H 0.666375049 3.536907885 -0.032061566
H -1.028356775 2.980864156 2.828709323
H -2.489181455 -1.155112952 3.777511236
H -1.837090732 -3.685137247 1.642887736
H -4.143979266 -1.349344199 0.897596080
H 2.585479385 0.897971625 -4.542365356
H 2.136540287 -2.582518770 -4.267168490

