13

O -4.780615563 -0.678712410 0.688263123
C -2.619090829 -1.510399661 -0.111247081
C -0.331666078 -0.061186932 0.596187144
N 1.822552975 -0.173421433 -0.726263399
C 4.185928162 0.529465714 0.238362003
O 4.514238464 1.196900050 2.365470251
H -3.770232899 2.194705169 0.258347369
H -2.458041925 -2.182583747 -2.102547307
H -1.863005511 -3.161749250 1.073941599
H -0.157572375 0.648733322 2.510461605
H -2.546979334 3.088957737 0.017812766
H 1.731262970 -0.714699768 -2.554322375
H 5.688812836 0.403702891 -1.194586345

