10

C -1.921479457 -2.001015989 -0.163429921
N 0.631413812 -1.500889936 -0.963725137
C 2.403365420 -0.480902361 0.605940455
N 2.135367031 0.330468766 2.849322569
H 0.331786737 0.124922367 3.484637229
H 4.267543657 -0.357119555 -0.266304930
H 1.231606155 -2.247786442 -2.596431784
H -2.889346345 -0.253982007 0.368367148
H -2.961328942 -2.851272558 -1.720780811
H -1.989855342 -3.295650689 1.450742859

