10

C -2.985694881 -2.361120574 1.213960988
C -2.613428756 0.392487499 0.693350436
C -3.701284900 1.659164061 -1.175895706
H -4.962501891 0.705321492 -2.465413519
H -3.345932050 3.654522398 -1.438709405
O -1.023411248 1.618801287 2.312711422
H -0.390307757 0.456921887 3.548818394
H -4.258810628 -3.205947734 -0.161217770
H -1.181633916 -3.367881086 1.133711614
H -3.786843157 -2.641986902 3.099225016

