16

C -2.199416445 2.664544752 -0.103308266
C -0.681040855 0.342964391 0.653702055
C -2.085949257 -2.086608053 -0.017086563
O -0.766538471 -4.270340452 0.734052567
N 1.767459692 0.353633180 -0.572184806
C 3.996534727 0.173221745 0.421156591
O 5.650753128 0.276927609 -1.335241816
H -1.212977084 4.389931108 0.438115805
H -4.048615446 2.658670160 0.810950606
H -2.484008103 2.707036207 -2.147006724
H -0.379506913 0.342784622 2.703209020
H -3.894706060 -2.124958741 0.973830466
H -2.475563390 -2.105319649 -2.056052127
H 0.765244745 -4.356647003 -0.234394674
H 3.442665958 0.483712100 -2.457733540
H 4.468343064 -0.032402076 2.413551025

