14

O 3.364859452 -2.430472672 -0.537737008
C 2.290613872 -0.158217471 -1.380164593
C 0.994007639 1.305629297 0.718536952
C -1.527542822 2.509622944 0.212844975
C -1.304193030 0.330313261 1.951787471
O -2.231694271 -2.893388771 0.345903067
H 1.985034292 -3.531665747 -0.101193228
H 0.923466090 -0.493540755 -2.898702643
H 3.829076816 0.977994043 -2.151434730
H 2.276597981 2.207781053 2.044884412
H -2.325305426 2.193887654 -1.648240442
H -2.069246232 4.293042469 1.063934195
H -2.271657916 -1.886533394 2.284469956
H -3.870215511 -2.588100265 -0.382076336

