15

O -3.349453819 -0.498825789 2.939545162
C -2.602558711 0.813213969 0.748200814
C -1.146806377 -0.830002031 -1.059511329
C 0.645756796 0.310680159 -2.916209085
C 1.656348671 -1.177103600 -0.703024436
C 2.566134939 2.031311360 2.921159052
C 2.915742512 0.166004692 1.393460820
H -1.874431607 -0.777223133 3.960374099
H -1.488662954 2.506348389 1.234233309
H -4.334203879 1.484721911 -0.150121204
H -2.159881126 -2.509432781 -1.650517581
H 0.800437833 -0.524551803 -4.775253370
H 0.924200891 2.336979909 -2.854713976
H 2.422248792 -3.027620421 -1.105693949
H 4.809627489 -0.426645149 2.059806238

