15

O -3.175820302 -1.180328777 2.695890527
C -2.753106445 0.448741962 0.626920195
C -1.192957155 -0.772340686 -1.415395305
C 0.552824676 0.782049305 -2.989929531
C 1.636394032 -1.018785520 -1.060824443
C 2.794046644 -0.058929673 1.206427463
C 3.712964787 0.722521099 3.124914898
H -1.574399564 -1.468978754 3.502067893
H -1.849101718 2.209360241 1.243372894
H -4.615182362 0.934653061 -0.116270351
H -2.080107717 -2.384448846 -2.314865578
H 0.801981305 0.305592960 -4.961614419
H 0.695892212 2.777526469 -2.562559483
H 2.492396446 -2.729800207 -1.785979858
H 4.554175161 1.433167367 4.807845118

