21

C     4.18392   0.70225   0.43557
O     2.86420   0.17308   0.62952
C     2.21642  -0.20583  -0.47516
O     2.65591  -0.08036  -1.60332
C     0.96893  -0.86535  -0.16442
C    -0.01907  -1.49462   0.04236
F    -0.93414  -2.40238   0.25919
C    -2.04554   0.22711   0.19748
C    -2.37136  -0.09855   1.52189
N    -2.69003  -0.37568   2.61616
C    -2.74265  -0.30187  -0.89816
N    -3.36328  -0.74675  -1.78858
N    -1.05351   1.15604  -0.03151
C    -0.18397   1.92282  -0.21980
C     0.94389   2.77930  -0.45249
H     4.13857   1.60060  -0.18722
H     4.56183   0.93429   1.43105
H     4.82701  -0.05121  -0.05242
H     0.53242   3.75806  -0.51858
H     1.65270   2.66178   0.38606
H     1.45544   2.46126  -1.38081
21

C     4.18323   0.70098   0.43515
O     2.86397   0.17137   0.63029
C     2.21354  -0.20656  -0.47470
O     2.65548  -0.08302  -1.60267
C     0.96034  -0.84930  -0.16455
C    -0.03724  -1.47170   0.04293
F    -0.92707  -2.39955   0.25792
C    -2.02638   0.21259   0.19581
C    -2.36813  -0.10249   1.52100
N    -2.69102  -0.37409   2.61415
C    -2.73908  -0.30571  -0.89761
N    -3.36362  -0.74481  -1.78661
N    -1.06171   1.16355  -0.03084
C    -0.17542   1.90496  -0.21966
C     0.94290   2.77313  -0.45189
H     4.13831   1.60026  -0.18732
H     4.56182   0.93405   1.43085
H     4.82700  -0.05141  -0.05257
H     0.52872   3.75485  -0.51807
H     1.65268   2.66203   0.38613
H     1.45586   2.46136  -1.38075
21

C     4.18255   0.69971   0.43474
O     2.86374   0.16966   0.63107
C     2.21066  -0.20730  -0.47425
O     2.65506  -0.08568  -1.60201
C     0.95174  -0.83325  -0.16468
C    -0.05540  -1.44879   0.04349
F    -0.92000  -2.39673   0.25665
C    -2.00722   0.19806   0.19415
C    -2.36491  -0.10643   1.52011
N    -2.69201  -0.37250   2.61215
C    -2.73551  -0.30955  -0.89707
N    -3.36395  -0.74287  -1.78464
N    -1.06992   1.17107  -0.03017
C    -0.16688   1.88710  -0.21951
C     0.94191   2.76696  -0.45129
H     4.13806   1.59992  -0.18743
H     4.56182   0.93380   1.43065
H     4.82700  -0.05160  -0.05272
H     0.52501   3.75165  -0.51757
H     1.65266   2.66229   0.38620
H     1.45629   2.46147  -1.38069
21

C     4.18186   0.69843   0.43432
O     2.86351   0.16795   0.63184
C     2.20778  -0.20804  -0.47379
O     2.65464  -0.08834  -1.60135
C     0.94315  -0.81720  -0.16481
C    -0.07357  -1.42588   0.04406
F    -0.91293  -2.39390   0.25538
C    -1.98807   0.18353   0.19248
C    -2.36168  -0.11037   1.51922
N    -2.69300  -0.37091   2.61014
C    -2.73195  -0.31340  -0.89653
N    -3.36429  -0.74092  -1.78267
N    -1.07813   1.17858  -0.02950
C    -0.15833   1.86924  -0.21937
C     0.94093   2.76079  -0.45069
H     4.13780   1.59958  -0.18753
H     4.56181   0.93356   1.43045
H     4.82699  -0.05179  -0.05287
H     0.52131   3.74845  -0.51707
H     1.65263   2.66255   0.38627
H     1.45671   2.46157  -1.38063
21

C     4.18118   0.69716   0.43391
O     2.86328   0.16624   0.63261
C     2.20490  -0.20877  -0.47334
O     2.65421  -0.09100  -1.60070
C     0.93455  -0.80115  -0.16494
C    -0.09173  -1.40297   0.04462
F    -0.90586  -2.39108   0.25411
C    -1.96891   0.16901   0.19081
C    -2.35845  -0.11431   1.51833
N    -2.69399  -0.36932   2.60814
C    -2.72838  -0.31724  -0.89598
N    -3.36462  -0.73898  -1.78070
N    -1.08633   1.18609  -0.02883
C    -0.14979   1.85137  -0.21922
C     0.93994   2.75462  -0.45009
H     4.13755   1.59924  -0.18763
H     4.56180   0.93332   1.43025
H     4.82699  -0.05199  -0.05302
H     0.51761   3.74524  -0.51656
H     1.65261   2.66281   0.38634
H     1.45713   2.46167  -1.38057
21

C     4.18049   0.69589   0.43349
O     2.86306   0.16453   0.63339
C     2.20203  -0.20951  -0.47288
O     2.65379  -0.09366  -1.60004
C     0.92596  -0.78511  -0.16507
C    -0.10990  -1.38005   0.04519
F    -0.89879  -2.38825   0.25284
C    -1.94976   0.15448   0.18915
C    -2.35522  -0.11825   1.51744
N    -2.69498  -0.36773   2.60613
C    -2.72481  -0.32108  -0.89544
N    -3.36495  -0.73704  -1.77873
N    -1.09454   1.19360  -0.02816
C    -0.14124   1.83351  -0.21908
C     0.93895   2.74845  -0.44949
H     4.13729   1.59890  -0.18774
H     4.56179   0.93307   1.43005
H     4.82699  -0.05218  -0.05317
H     0.51391   3.74204  -0.51606
H     1.65258   2.66307   0.38641
H     1.45756   2.46177  -1.38051
21

C     4.17981   0.69462   0.43308
O     2.86283   0.16282   0.63416
C     2.19915  -0.21024  -0.47243
O     2.65336  -0.09633  -1.59938
C     0.91736  -0.76906  -0.16520
C    -0.12806  -1.35714   0.04576
F    -0.89173  -2.38543   0.25157
C    -1.93060   0.13995   0.18748
C    -2.35199  -0.12219   1.51655
N    -2.69597  -0.36614   2.60413
C    -2.72124  -0.32492  -0.89489
N    -3.36529  -0.73509  -1.77676
N    -1.10275   1.20111  -0.02749
C    -0.13270   1.81565  -0.21893
C     0.93797   2.74228  -0.44889
H     4.13704   1.59856  -0.18784
H     4.56178   0.93283   1.42985
H     4.82698  -0.05237  -0.05332
H     0.51021   3.73884  -0.51556
H     1.65256   2.66332   0.38648
H     1.45798   2.46188  -1.38044
21

C     4.17912   0.69334   0.43266
O     2.86260   0.16111   0.63494
C     2.19627  -0.21098  -0.47197
O     2.65294  -0.09899  -1.59872
C     0.90877  -0.75301  -0.16533
C    -0.14623  -1.33423   0.04632
F    -0.88466  -2.38260   0.25030
C    -1.91144   0.12543   0.18581
C    -2.34876  -0.12613   1.51566
N    -2.69696  -0.36455   2.60212
C    -2.71767  -0.32876  -0.89435
N    -3.36562  -0.73315  -1.77479
N    -1.11095   1.20862  -0.02682
C    -0.12415   1.79778  -0.21879
C     0.93698   2.73612  -0.44829
H     4.13678   1.59823  -0.18795
H     4.56177   0.93259   1.42965
H     4.82698  -0.05257  -0.05346
H     0.50651   3.73563  -0.51505
H     1.65253   2.66358   0.38655
H     1.45840   2.46198  -1.38038
21

C     4.17844   0.69207   0.43224
O     2.86237   0.15940   0.63571
C     2.19339  -0.21172  -0.47152
O     2.65251  -0.10165  -1.59807
C     0.90017  -0.73696  -0.16546
C    -0.16439  -1.31132   0.04689
F    -0.87759  -2.37978   0.24903
C    -1.89229   0.11090   0.18415
C    -2.34553  -0.13007   1.51477
N    -2.69795  -0.36296   2.60012
C    -2.71410  -0.33260  -0.89381
N    -3.36596  -0.73121  -1.77283
N    -1.11916   1.21613  -0.02615
C    -0.11561   1.77992  -0.21864
C     0.93599   2.72995  -0.44769
H     4.13653   1.59789  -0.18805
H     4.56176   0.93235   1.42945
H     4.82697  -0.05276  -0.05361
H     0.50281   3.73243  -0.51455
H     1.65251   2.66384   0.38662
H     1.45883   2.46208  -1.38032
21

C     4.17775   0.69080   0.43183
O     2.86214   0.15769   0.63648
C     2.19051  -0.21245  -0.47106
O     2.65209  -0.10431  -1.59741
C     0.89158  -0.72091  -0.16559
C    -0.18256  -1.28840   0.04745
F    -0.87052  -2.37695   0.24776
C    -1.87313   0.09637   0.18248
C    -2.34230  -0.13401   1.51388
N    -2.69894  -0.36137   2.59811
C    -2.71053  -0.33645  -0.89326
N    -3.36629  -0.72927  -1.77086
N    -1.12737   1.22364  -0.02548
C    -0.10706   1.76206  -0.21850
C     0.93501   2.72378  -0.44710
H     4.13628   1.59755  -0.18815
H     4.56175   0.93210   1.42925
H     4.82697  -0.05296  -0.05376
H     0.49910   3.72923  -0.51404
H     1.65248   2.66410   0.38669
H     1.45925   2.46218  -1.38026
21

C     4.17707   0.68953   0.43141
O     2.86192   0.15598   0.63726
C     2.18763  -0.21319  -0.47061
O     2.65167  -0.10697  -1.59675
C     0.88298  -0.70486  -0.16572
C    -0.20072  -1.26549   0.04802
F    -0.86345  -2.37413   0.24650
C    -1.85398   0.08185   0.18082
C    -2.33907  -0.13795   1.51299
N    -2.69994  -0.35978   2.59611
C    -2.70696  -0.34029  -0.89272
N    -3.36663  -0.72732  -1.76889
N    -1.13557   1.23115  -0.02481
C    -0.09852   1.74420  -0.21835
C     0.93402   2.71761  -0.44650
H     4.13602   1.59721  -0.18826
H     4.56174   0.93186   1.42905
H     4.82696  -0.05315  -0.05391
H     0.49540   3.72602  -0.51354
H     1.65246   2.66436   0.38676
H     1.45967   2.46229  -1.38020
21

C     4.17638   0.68825   0.43100
O     2.86169   0.15426   0.63803
C     2.18476  -0.21393  -0.47015
O     2.65124  -0.10963  -1.59609
C     0.87439  -0.68881  -0.16585
C    -0.21889  -1.24258   0.04859
F    -0.85638  -2.37130   0.24523
C    -1.83482   0.06732   0.17915
C    -2.33584  -0.14189   1.51210
N    -2.70093  -0.35819   2.59410
C    -2.70339  -0.34413  -0.89217
N    -3.36696  -0.72538  -1.76692
N    -1.14378   1.23867  -0.02414
C    -0.08997   1.72633  -0.21821
C     0.93303   2.71144  -0.44590
H     4.13577   1.59687  -0.18836
H     4.56173   0.93162   1.42885
H     4.82696  -0.05334  -0.05406
H     0.49170   3.72282  -0.51304
H     1.65243   2.66462   0.38683
H     1.46010   2.46239  -1.38014
21

C     4.17570   0.68698   0.43058
O     2.86146   0.15255   0.63881
C     2.18188  -0.21466  -0.46970
O     2.65082  -0.11229  -1.59544
C     0.86579  -0.67276  -0.16598
C    -0.23705  -1.21967   0.04915
F    -0.84931  -2.36848   0.24396
C    -1.81566   0.05279   0.17748
C    -2.33261  -0.14583   1.51121
N    -2.70192  -0.35660   2.59210
C    -2.69982  -0.34797  -0.89163
N    -3.36730  -0.72344  -1.76495
N    -1.15199   1.24618  -0.02347
C    -0.08143   1.70847  -0.21807
C     0.93205   2.70527  -0.44530
H     4.13551   1.59653  -0.18847
H     4.56172   0.93137   1.42865
H     4.82696  -0.05354  -0.05421
H     0.48800   3.71962  -0.51253
H     1.65241   2.66487   0.38690
H     1.46052   2.46249  -1.38008
21

C     4.17501   0.68571   0.43017
O     2.86123   0.15084   0.63958
C     2.17900  -0.21540  -0.46924
O     2.65039  -0.11495  -1.59478
C     0.85720  -0.65671  -0.16611
C    -0.25522  -1.19675   0.04972
F    -0.84224  -2.36565   0.24269
C    -1.79651   0.03827   0.17582
C    -2.32938  -0.14977   1.51031
N    -2.70291  -0.35501   2.59009
C    -2.69625  -0.35181  -0.89109
N    -3.36763  -0.72149  -1.76298
N    -1.16019   1.25369  -0.02280
C    -0.07288   1.69061  -0.21792
C     0.93106   2.69910  -0.44470
H     4.13526   1.59619  -0.18857
H     4.56171   0.93113   1.42845
H     4.82695  -0.05373  -0.05436
H     0.48430   3.71641  -0.51203
H     1.65238   2.66513   0.38697
H     1.46094   2.46259  -1.38002
21

C     4.17433   0.68444   0.42975
O     2.86100   0.14913   0.64036
C     2.17612  -0.21613  -0.46879
O     2.64997  -0.11761  -1.59412
C     0.84860  -0.64066  -0.16624
C    -0.27338  -1.17384   0.05028
F    -0.83517  -2.36283   0.24142
C    -1.77735   0.02374   0.17415
C    -2.32615  -0.15371   1.50942
N    -2.70390  -0.35342   2.58809
C    -2.69268  -0.35566  -0.89054
N    -3.36796  -0.71955  -1.76101
N    -1.16840   1.26120  -0.02213
C    -0.06434   1.67275  -0.21778
C     0.93007   2.69293  -0.44410
H     4.13500   1.59586  -0.18868
H     4.56170   0.93089   1.42825
H     4.82695  -0.05392  -0.05451
H     0.48060   3.71321  -0.51153
H     1.65236   2.66539   0.38705
H     1.46137   2.46270  -1.37996
21

C     4.17364   0.68316   0.42934
O     2.86078   0.14742   0.64113
C     2.17324  -0.21687  -0.46833
O     2.64954  -0.12028  -1.59347
C     0.84001  -0.62461  -0.16636
C    -0.29155  -1.15093   0.05085
F    -0.82810  -2.36000   0.24015
C    -1.75820   0.00921   0.17248
C    -2.32293  -0.15765   1.50853
N    -2.70489  -0.35183   2.58608
C    -2.68911  -0.35950  -0.89000
N    -3.36830  -0.71761  -1.75904
N    -1.17661   1.26871  -0.02146
C    -0.05579   1.65488  -0.21763
C     0.92909   2.68677  -0.44350
H     4.13475   1.59552  -0.18878
H     4.56169   0.93064   1.42805
H     4.82694  -0.05412  -0.05465
H     0.47690   3.71001  -0.51102
H     1.65233   2.66565   0.38712
H     1.46179   2.46280  -1.37990
21

C     4.17296   0.68189   0.42892
O     2.86055   0.14571   0.64190
C     2.17036  -0.21761  -0.46788
O     2.64912  -0.12294  -1.59281
C     0.83141  -0.60856  -0.16649
C    -0.30971  -1.12802   0.05142
F    -0.82103  -2.35718   0.23888
C    -1.73904  -0.00531   0.17082
C    -2.31970  -0.16159   1.50764
N    -2.70588  -0.35024   2.58408
C    -2.68554  -0.36334  -0.88945
N    -3.36863  -0.71566  -1.75707
N    -1.18481   1.27622  -0.02079
C    -0.04725   1.63702  -0.21749
C     0.92810   2.68060  -0.44290
H     4.13449   1.59518  -0.18888
H     4.56168   0.93040   1.42785
H     4.82694  -0.05431  -0.05480
H     0.47319   3.70680  -0.51052
H     1.65231   2.66591   0.38719
H     1.46221   2.46290  -1.37984
21

C     4.17227   0.68062   0.42851
O     2.86032   0.14400   0.64268
C     2.16749  -0.21834  -0.46742
O     2.64869  -0.12560  -1.59215
C     0.82282  -0.59251  -0.16662
C    -0.32788  -1.10511   0.05198
F    -0.81396  -2.35435   0.23761
C    -1.71988  -0.01984   0.16915
C    -2.31647  -0.16553   1.50675
N    -2.70687  -0.34865   2.58207
C    -2.68197  -0.36718  -0.88891
N    -3.36897  -0.71372  -1.75510
N    -1.19302   1.28373  -0.02012
C    -0.03870   1.61916  -0.21734
C     0.92711   2.67443  -0.44230
H     4.13424   1.59484  -0.18899
H     4.56168   0.93016   1.42765
H     4.82693  -0.05451  -0.05495
H     0.46949   3.70360  -0.51002
H     1.65228   2.66616   0.38726
H     1.46264   2.46301  -1.37978
21

C     4.17159   0.67934   0.42809
O     2.86009   0.14229   0.64345
C     2.16461  -0.21908  -0.46697
O     2.64827  -0.12826  -1.59149
C     0.81422  -0.57646  -0.16675
C    -0.34604  -1.08219   0.05255
F    -0.80690  -2.35153   0.23634
C    -1.70073  -0.03437   0.16748
C    -2.31324  -0.16946   1.50586
N    -2.70786  -0.34706   2.58007
C    -2.67840  -0.37102  -0.88837
N    -3.36930  -0.71178  -1.75313
N    -1.20123   1.29124  -0.01945
C    -0.03016   1.60129  -0.21720
C     0.92613   2.66826  -0.44170
H     4.13398   1.59450  -0.18909
H     4.56167   0.92991   1.42745
H     4.82693  -0.05470  -0.05510
H     0.46579   3.70040  -0.50951
H     1.65226   2.66642   0.38733
H     1.46306   2.46311  -1.37971
21

C     4.17090   0.67807   0.42768
O     2.85986   0.14058   0.64423
C     2.16173  -0.21981  -0.46652
O     2.64785  -0.13092  -1.59084
C     0.80563  -0.56041  -0.16688
C    -0.36421  -1.05928   0.05311
F    -0.79983  -2.34870   0.23507
C    -1.68157  -0.04889   0.16582
C    -2.31001  -0.17340   1.50497
N    -2.70885  -0.34547   2.57806
C    -2.67484  -0.37487  -0.88782
N    -3.36964  -0.70983  -1.75116
N    -1.20943   1.29875  -0.01878
C    -0.02161   1.58343  -0.21705
C     0.92514   2.66209  -0.44110
H     4.13373   1.59416  -0.18920
H     4.56166   0.92967   1.42725
H     4.82693  -0.05489  -0.05525
H     0.46209   3.69719  -0.50901
H     1.65223   2.66668   0.38740
H     1.46348   2.46321  -1.37965
21

C     4.17022   0.67680   0.42726
O     2.85964   0.13887   0.64500
C     2.15885  -0.22055  -0.46606
O     2.64742  -0.13358  -1.59018
C     0.79704  -0.54436  -0.16701
C    -0.38237  -1.03637   0.05368
F    -0.79276  -2.34587   0.23380
C    -1.66242  -0.06342   0.16415
C    -2.30678  -0.17734   1.50408
N    -2.70984  -0.34388   2.57606
C    -2.67127  -0.37871  -0.88728
N    -3.36997  -0.70789  -1.74919
N    -1.21764   1.30626  -0.01811
C    -0.01307   1.56557  -0.21691
C     0.92415   2.65592  -0.44050
H     4.13347   1.59382  -0.18930
H     4.56165   0.92943   1.42705
H     4.82692  -0.05509  -0.05540
H     0.45839   3.69399  -0.50850
H     1.65221   2.66694   0.38747
H     1.46391   2.46331  -1.37959
21

C     4.17090   0.67807   0.42768
O     2.85986   0.14058   0.64423
C     2.16173  -0.21981  -0.46652
O     2.64785  -0.13092  -1.59084
C     0.80563  -0.56041  -0.16688
C    -0.36421  -1.05928   0.05311
F    -0.79983  -2.34870   0.23507
C    -1.68157  -0.04889   0.16582
C    -2.31001  -0.17340   1.50497
N    -2.70885  -0.34547   2.57806
C    -2.67484  -0.37487  -0.88782
N    -3.36964  -0.70983  -1.75116
N    -1.20943   1.29875  -0.01878
C    -0.02161   1.58343  -0.21705
C     0.92514   2.66209  -0.44110
H     4.13373   1.59416  -0.18920
H     4.56166   0.92967   1.42725
H     4.82693  -0.05489  -0.05525
H     0.46209   3.69719  -0.50901
H     1.65223   2.66668   0.38740
H     1.46348   2.46321  -1.37965
21

C     4.17159   0.67934   0.42809
O     2.86009   0.14229   0.64345
C     2.16461  -0.21908  -0.46697
O     2.64827  -0.12826  -1.59149
C     0.81422  -0.57646  -0.16675
C    -0.34604  -1.08219   0.05255
F    -0.80690  -2.35153   0.23634
C    -1.70073  -0.03437   0.16748
C    -2.31324  -0.16946   1.50586
N    -2.70786  -0.34706   2.58007
C    -2.67840  -0.37102  -0.88837
N    -3.36930  -0.71178  -1.75313
N    -1.20123   1.29124  -0.01945
C    -0.03016   1.60129  -0.21720
C     0.92613   2.66826  -0.44170
H     4.13398   1.59450  -0.18909
H     4.56167   0.92991   1.42745
H     4.82693  -0.05470  -0.05510
H     0.46579   3.70040  -0.50951
H     1.65226   2.66642   0.38733
H     1.46306   2.46311  -1.37971
21

C     4.17227   0.68062   0.42851
O     2.86032   0.14400   0.64268
C     2.16749  -0.21834  -0.46742
O     2.64869  -0.12560  -1.59215
C     0.82282  -0.59251  -0.16662
C    -0.32788  -1.10511   0.05198
F    -0.81396  -2.35435   0.23761
C    -1.71988  -0.01984   0.16915
C    -2.31647  -0.16553   1.50675
N    -2.70687  -0.34865   2.58207
C    -2.68197  -0.36718  -0.88891
N    -3.36897  -0.71372  -1.75510
N    -1.19302   1.28373  -0.02012
C    -0.03870   1.61916  -0.21734
C     0.92711   2.67443  -0.44230
H     4.13424   1.59484  -0.18899
H     4.56168   0.93016   1.42765
H     4.82693  -0.05451  -0.05495
H     0.46949   3.70360  -0.51002
H     1.65228   2.66616   0.38726
H     1.46264   2.46301  -1.37978
21

C     4.17296   0.68189   0.42892
O     2.86055   0.14571   0.64190
C     2.17036  -0.21761  -0.46788
O     2.64912  -0.12294  -1.59281
C     0.83141  -0.60856  -0.16649
C    -0.30971  -1.12802   0.05142
F    -0.82103  -2.35718   0.23888
C    -1.73904  -0.00531   0.17082
C    -2.31970  -0.16159   1.50764
N    -2.70588  -0.35024   2.58408
C    -2.68554  -0.36334  -0.88945
N    -3.36863  -0.71566  -1.75707
N    -1.18481   1.27622  -0.02079
C    -0.04725   1.63702  -0.21749
C     0.92810   2.68060  -0.44290
H     4.13449   1.59518  -0.18888
H     4.56168   0.93040   1.42785
H     4.82694  -0.05431  -0.05480
H     0.47319   3.70680  -0.51052
H     1.65231   2.66591   0.38719
H     1.46221   2.46290  -1.37984
21

C     4.17364   0.68316   0.42934
O     2.86078   0.14742   0.64113
C     2.17324  -0.21687  -0.46833
O     2.64954  -0.12028  -1.59347
C     0.84001  -0.62461  -0.16636
C    -0.29155  -1.15093   0.05085
F    -0.82810  -2.36000   0.24015
C    -1.75820   0.00921   0.17248
C    -2.32293  -0.15765   1.50853
N    -2.70489  -0.35183   2.58608
C    -2.68911  -0.35950  -0.89000
N    -3.36830  -0.71761  -1.75904
N    -1.17661   1.26871  -0.02146
C    -0.05579   1.65488  -0.21763
C     0.92909   2.68677  -0.44350
H     4.13475   1.59552  -0.18878
H     4.56169   0.93064   1.42805
H     4.82694  -0.05412  -0.05465
H     0.47690   3.71001  -0.51102
H     1.65233   2.66565   0.38712
H     1.46179   2.46280  -1.37990
21

C     4.17433   0.68444   0.42975
O     2.86100   0.14913   0.64036
C     2.17612  -0.21613  -0.46879
O     2.64997  -0.11761  -1.59412
C     0.84860  -0.64066  -0.16624
C    -0.27338  -1.17384   0.05028
F    -0.83517  -2.36283   0.24142
C    -1.77735   0.02374   0.17415
C    -2.32615  -0.15371   1.50942
N    -2.70390  -0.35342   2.58809
C    -2.69268  -0.35566  -0.89054
N    -3.36796  -0.71955  -1.76101
N    -1.16840   1.26120  -0.02213
C    -0.06434   1.67275  -0.21778
C     0.93007   2.69293  -0.44410
H     4.13500   1.59586  -0.18868
H     4.56170   0.93089   1.42825
H     4.82695  -0.05392  -0.05451
H     0.48060   3.71321  -0.51153
H     1.65236   2.66539   0.38705
H     1.46137   2.46270  -1.37996
21

C     4.17501   0.68571   0.43017
O     2.86123   0.15084   0.63958
C     2.17900  -0.21540  -0.46924
O     2.65039  -0.11495  -1.59478
C     0.85720  -0.65671  -0.16611
C    -0.25522  -1.19675   0.04972
F    -0.84224  -2.36565   0.24269
C    -1.79651   0.03827   0.17582
C    -2.32938  -0.14977   1.51031
N    -2.70291  -0.35501   2.59009
C    -2.69625  -0.35181  -0.89109
N    -3.36763  -0.72149  -1.76298
N    -1.16019   1.25369  -0.02280
C    -0.07288   1.69061  -0.21792
C     0.93106   2.69910  -0.44470
H     4.13526   1.59619  -0.18857
H     4.56171   0.93113   1.42845
H     4.82695  -0.05373  -0.05436
H     0.48430   3.71641  -0.51203
H     1.65238   2.66513   0.38697
H     1.46094   2.46259  -1.38002
21

C     4.17570   0.68698   0.43058
O     2.86146   0.15255   0.63881
C     2.18188  -0.21466  -0.46970
O     2.65082  -0.11229  -1.59544
C     0.86579  -0.67276  -0.16598
C    -0.23705  -1.21967   0.04915
F    -0.84931  -2.36848   0.24396
C    -1.81566   0.05279   0.17748
C    -2.33261  -0.14583   1.51121
N    -2.70192  -0.35660   2.59210
C    -2.69982  -0.34797  -0.89163
N    -3.36730  -0.72344  -1.76495
N    -1.15199   1.24618  -0.02347
C    -0.08143   1.70847  -0.21807
C     0.93205   2.70527  -0.44530
H     4.13551   1.59653  -0.18847
H     4.56172   0.93137   1.42865
H     4.82696  -0.05354  -0.05421
H     0.48800   3.71962  -0.51253
H     1.65241   2.66487   0.38690
H     1.46052   2.46249  -1.38008
21

C     4.17638   0.68825   0.43100
O     2.86169   0.15426   0.63803
C     2.18476  -0.21393  -0.47015
O     2.65124  -0.10963  -1.59609
C     0.87439  -0.68881  -0.16585
C    -0.21889  -1.24258   0.04859
F    -0.85638  -2.37130   0.24523
C    -1.83482   0.06732   0.17915
C    -2.33584  -0.14189   1.51210
N    -2.70093  -0.35819   2.59410
C    -2.70339  -0.34413  -0.89217
N    -3.36696  -0.72538  -1.76692
N    -1.14378   1.23867  -0.02414
C    -0.08997   1.72633  -0.21821
C     0.93303   2.71144  -0.44590
H     4.13577   1.59687  -0.18836
H     4.56173   0.93162   1.42885
H     4.82696  -0.05334  -0.05406
H     0.49170   3.72282  -0.51304
H     1.65243   2.66462   0.38683
H     1.46010   2.46239  -1.38014
21

C     4.17707   0.68953   0.43141
O     2.86192   0.15598   0.63726
C     2.18763  -0.21319  -0.47061
O     2.65167  -0.10697  -1.59675
C     0.88298  -0.70486  -0.16572
C    -0.20072  -1.26549   0.04802
F    -0.86345  -2.37413   0.24650
C    -1.85398   0.08185   0.18082
C    -2.33907  -0.13795   1.51299
N    -2.69994  -0.35978   2.59611
C    -2.70696  -0.34029  -0.89272
N    -3.36663  -0.72732  -1.76889
N    -1.13557   1.23115  -0.02481
C    -0.09852   1.74420  -0.21835
C     0.93402   2.71761  -0.44650
H     4.13602   1.59721  -0.18826
H     4.56174   0.93186   1.42905
H     4.82696  -0.05315  -0.05391
H     0.49540   3.72602  -0.51354
H     1.65246   2.66436   0.38676
H     1.45967   2.46229  -1.38020
21

C     4.17775   0.69080   0.43183
O     2.86214   0.15769   0.63648
C     2.19051  -0.21245  -0.47106
O     2.65209  -0.10431  -1.59741
C     0.89158  -0.72091  -0.16559
C    -0.18256  -1.28840   0.04745
F    -0.87052  -2.37695   0.24776
C    -1.87313   0.09637   0.18248
C    -2.34230  -0.13401   1.51388
N    -2.69894  -0.36137   2.59811
C    -2.71053  -0.33645  -0.89326
N    -3.36629  -0.72927  -1.77086
N    -1.12737   1.22364  -0.02548
C    -0.10706   1.76206  -0.21850
C     0.93501   2.72378  -0.44710
H     4.13628   1.59755  -0.18815
H     4.56175   0.93210   1.42925
H     4.82697  -0.05296  -0.05376
H     0.49910   3.72923  -0.51404
H     1.65248   2.66410   0.38669
H     1.45925   2.46218  -1.38026
21

C     4.17844   0.69207   0.43224
O     2.86237   0.15940   0.63571
C     2.19339  -0.21172  -0.47152
O     2.65251  -0.10165  -1.59807
C     0.90017  -0.73696  -0.16546
C    -0.16439  -1.31132   0.04689
F    -0.87759  -2.37978   0.24903
C    -1.89229   0.11090   0.18415
C    -2.34553  -0.13007   1.51477
N    -2.69795  -0.36296   2.60012
C    -2.71410  -0.33260  -0.89381
N    -3.36596  -0.73121  -1.77283
N    -1.11916   1.21613  -0.02615
C    -0.11561   1.77992  -0.21864
C     0.93599   2.72995  -0.44769
H     4.13653   1.59789  -0.18805
H     4.56176   0.93235   1.42945
H     4.82697  -0.05276  -0.05361
H     0.50281   3.73243  -0.51455
H     1.65251   2.66384   0.38662
H     1.45883   2.46208  -1.38032
21

C     4.17912   0.69334   0.43266
O     2.86260   0.16111   0.63494
C     2.19627  -0.21098  -0.47197
O     2.65294  -0.09899  -1.59872
C     0.90877  -0.75301  -0.16533
C    -0.14623  -1.33423   0.04632
F    -0.88466  -2.38260   0.25030
C    -1.91144   0.12543   0.18581
C    -2.34876  -0.12613   1.51566
N    -2.69696  -0.36455   2.60212
C    -2.71767  -0.32876  -0.89435
N    -3.36562  -0.73315  -1.77479
N    -1.11095   1.20862  -0.02682
C    -0.12415   1.79778  -0.21879
C     0.93698   2.73612  -0.44829
H     4.13678   1.59823  -0.18795
H     4.56177   0.93259   1.42965
H     4.82698  -0.05257  -0.05346
H     0.50651   3.73563  -0.51505
H     1.65253   2.66358   0.38655
H     1.45840   2.46198  -1.38038
21

C     4.17981   0.69462   0.43308
O     2.86283   0.16282   0.63416
C     2.19915  -0.21024  -0.47243
O     2.65336  -0.09633  -1.59938
C     0.91736  -0.76906  -0.16520
C    -0.12806  -1.35714   0.04576
F    -0.89173  -2.38543   0.25157
C    -1.93060   0.13995   0.18748
C    -2.35199  -0.12219   1.51655
N    -2.69597  -0.36614   2.60413
C    -2.72124  -0.32492  -0.89489
N    -3.36529  -0.73509  -1.77676
N    -1.10275   1.20111  -0.02749
C    -0.13270   1.81565  -0.21893
C     0.93797   2.74228  -0.44889
H     4.13704   1.59856  -0.18784
H     4.56178   0.93283   1.42985
H     4.82698  -0.05237  -0.05332
H     0.51021   3.73884  -0.51556
H     1.65256   2.66332   0.38648
H     1.45798   2.46188  -1.38044
21

C     4.18049   0.69589   0.43349
O     2.86306   0.16453   0.63339
C     2.20203  -0.20951  -0.47288
O     2.65379  -0.09366  -1.60004
C     0.92596  -0.78511  -0.16507
C    -0.10990  -1.38005   0.04519
F    -0.89879  -2.38825   0.25284
C    -1.94976   0.15448   0.18915
C    -2.35522  -0.11825   1.51744
N    -2.69498  -0.36773   2.60613
C    -2.72481  -0.32108  -0.89544
N    -3.36495  -0.73704  -1.77873
N    -1.09454   1.19360  -0.02816
C    -0.14124   1.83351  -0.21908
C     0.93895   2.74845  -0.44949
H     4.13729   1.59890  -0.18774
H     4.56179   0.93307   1.43005
H     4.82699  -0.05218  -0.05317
H     0.51391   3.74204  -0.51606
H     1.65258   2.66307   0.38641
H     1.45756   2.46177  -1.38051
21

C     4.18118   0.69716   0.43391
O     2.86328   0.16624   0.63261
C     2.20490  -0.20877  -0.47334
O     2.65421  -0.09100  -1.60070
C     0.93455  -0.80115  -0.16494
C    -0.09173  -1.40297   0.04462
F    -0.90586  -2.39108   0.25411
C    -1.96891   0.16901   0.19081
C    -2.35845  -0.11431   1.51833
N    -2.69399  -0.36932   2.60814
C    -2.72838  -0.31724  -0.89598
N    -3.36462  -0.73898  -1.78070
N    -1.08633   1.18609  -0.02883
C    -0.14979   1.85137  -0.21922
C     0.93994   2.75462  -0.45009
H     4.13755   1.59924  -0.18763
H     4.56180   0.93332   1.43025
H     4.82699  -0.05199  -0.05302
H     0.51761   3.74524  -0.51656
H     1.65261   2.66281   0.38634
H     1.45713   2.46167  -1.38057
21

C     4.18186   0.69843   0.43432
O     2.86351   0.16795   0.63184
C     2.20778  -0.20804  -0.47379
O     2.65464  -0.08834  -1.60135
C     0.94315  -0.81720  -0.16481
C    -0.07357  -1.42588   0.04406
F    -0.91293  -2.39390   0.25538
C    -1.98807   0.18353   0.19248
C    -2.36168  -0.11037   1.51922
N    -2.69300  -0.37091   2.61014
C    -2.73195  -0.31340  -0.89653
N    -3.36429  -0.74092  -1.78267
N    -1.07813   1.17858  -0.02950
C    -0.15833   1.86924  -0.21937
C     0.94093   2.76079  -0.45069
H     4.13780   1.59958  -0.18753
H     4.56181   0.93356   1.43045
H     4.82699  -0.05179  -0.05287
H     0.52131   3.74845  -0.51707
H     1.65263   2.66255   0.38627
H     1.45671   2.46157  -1.38063
21

C     4.18255   0.69971   0.43474
O     2.86374   0.16966   0.63107
C     2.21066  -0.20730  -0.47425
O     2.65506  -0.08568  -1.60201
C     0.95174  -0.83325  -0.16468
C    -0.05540  -1.44879   0.04349
F    -0.92000  -2.39673   0.25665
C    -2.00722   0.19806   0.19415
C    -2.36491  -0.10643   1.52011
N    -2.69201  -0.37250   2.61215
C    -2.73551  -0.30955  -0.89707
N    -3.36395  -0.74287  -1.78464
N    -1.06992   1.17107  -0.03017
C    -0.16688   1.88710  -0.21951
C     0.94191   2.76696  -0.45129
H     4.13806   1.59992  -0.18743
H     4.56182   0.93380   1.43065
H     4.82700  -0.05160  -0.05272
H     0.52501   3.75165  -0.51757
H     1.65266   2.66229   0.38620
H     1.45629   2.46147  -1.38069
21

C     4.18323   0.70098   0.43515
O     2.86397   0.17137   0.63029
C     2.21354  -0.20656  -0.47470
O     2.65548  -0.08302  -1.60267
C     0.96034  -0.84930  -0.16455
C    -0.03724  -1.47170   0.04293
F    -0.92707  -2.39955   0.25792
C    -2.02638   0.21259   0.19581
C    -2.36813  -0.10249   1.52100
N    -2.69102  -0.37409   2.61415
C    -2.73908  -0.30571  -0.89761
N    -3.36362  -0.74481  -1.78661
N    -1.06171   1.16355  -0.03084
C    -0.17542   1.90496  -0.21966
C     0.94290   2.77313  -0.45189
H     4.13831   1.60026  -0.18732
H     4.56182   0.93405   1.43085
H     4.82700  -0.05141  -0.05257
H     0.52872   3.75485  -0.51807
H     1.65268   2.66203   0.38613
H     1.45586   2.46136  -1.38075
