28

C     1.80353   2.88750   0.53067
O     1.38853   1.51874   0.67167
C     1.02589   0.88134  -0.44897
O     1.13691   1.36543  -1.55828
C     0.31854  -0.42116  -0.16289
C     0.55880  -1.55213  -1.14355
C     0.51221  -2.95969  -0.60339
O     0.65538  -1.33146  -2.34248
N     0.50636  -0.85010   1.22205
N    -0.55366  -0.63076   1.91351
C    -1.72366   0.03999   1.32611
C    -1.84210   1.42580   2.00312
C    -1.58846   0.07366  -0.17591
C    -2.39049  -0.89267  -1.01815
H     0.99615   3.48608   0.07457
H     2.70548   2.95936  -0.08819
H     2.00771   3.25120   1.54625
H     1.34748  -3.16995   0.07864
H     0.52864  -3.67634  -1.44293
H    -0.42213  -3.10528  -0.02876
H    -2.62546  -0.59970   1.63847
H    -2.82551   1.95064   1.96597
H    -1.08956   2.11100   1.58053
H    -1.60498   1.27789   3.07163
H    -1.50832   1.07905  -0.64388
H    -1.90118  -1.01557  -1.99792
H    -3.43792  -0.56830  -1.23887
H    -2.46306  -1.88102  -0.53268
28

C     1.80306   2.88808   0.53085
O     1.38858   1.51953   0.67235
C     1.02852   0.88082  -0.44844
O     1.13634   1.36515  -1.55796
C     0.33850  -0.42608  -0.16244
C     0.56185  -1.55373  -1.14327
C     0.51152  -2.96100  -0.60352
O     0.65543  -1.33171  -2.34248
N     0.50269  -0.84703   1.21675
N    -0.53150  -0.64353   1.92338
C    -1.74715   0.05189   1.31662
C    -1.84301   1.42773   2.00399
C    -1.60715   0.07989  -0.17380
C    -2.39238  -0.89367  -1.01936
H     0.99604   3.48624   0.07459
H     2.70535   2.95945  -0.08815
H     2.00760   3.25146   1.54627
H     1.34727  -3.17096   0.07843
H     0.52794  -3.67669  -1.44298
H    -0.42243  -3.10523  -0.02884
H    -2.62563  -0.60008   1.63926
H    -2.82460   1.95355   1.96997
H    -1.08974   2.11100   1.58004
H    -1.60305   1.27621   3.07095
H    -1.50681   1.07829  -0.64419
H    -1.89911  -1.01611  -1.99675
H    -3.43839  -0.57084  -1.24237
H    -2.46341  -1.88098  -0.53230
28

C     1.80260   2.88867   0.53103
O     1.38863   1.52032   0.67304
C     1.03114   0.88029  -0.44792
O     1.13577   1.36487  -1.55764
C     0.35846  -0.43101  -0.16200
C     0.56491  -1.55532  -1.14299
C     0.51083  -2.96231  -0.60364
O     0.65549  -1.33197  -2.34247
N     0.49901  -0.84397   1.21145
N    -0.50934  -0.65629   1.93326
C    -1.77064   0.06379   1.30712
C    -1.84391   1.42965   2.00486
C    -1.62584   0.08612  -0.17169
C    -2.39427  -0.89467  -1.02056
H     0.99592   3.48641   0.07461
H     2.70522   2.95954  -0.08811
H     2.00749   3.25171   1.54628
H     1.34707  -3.17196   0.07822
H     0.52724  -3.67703  -1.44304
H    -0.42273  -3.10518  -0.02892
H    -2.62580  -0.60046   1.64005
H    -2.82368   1.95646   1.97397
H    -1.08993   2.11100   1.57954
H    -1.60113   1.27454   3.07026
H    -1.50530   1.07753  -0.64451
H    -1.89704  -1.01666  -1.99558
H    -3.43885  -0.57339  -1.24588
H    -2.46375  -1.88094  -0.53192
28

C     1.80213   2.88926   0.53121
O     1.38867   1.52110   0.67373
C     1.03377   0.87976  -0.44740
O     1.13519   1.36460  -1.55731
C     0.37842  -0.43593  -0.16155
C     0.56796  -1.55692  -1.14271
C     0.51014  -2.96363  -0.60377
O     0.65555  -1.33222  -2.34247
N     0.49534  -0.84091   1.20615
N    -0.48718  -0.66906   1.94313
C    -1.79414   0.07568   1.29763
C    -1.84482   1.43157   2.00573
C    -1.64452   0.09235  -0.16959
C    -2.39616  -0.89566  -1.02177
H     0.99581   3.48657   0.07464
H     2.70509   2.95963  -0.08807
H     2.00739   3.25196   1.54630
H     1.34686  -3.17297   0.07801
H     0.52654  -3.67738  -1.44310
H    -0.42303  -3.10514  -0.02900
H    -2.62597  -0.60084   1.64085
H    -2.82276   1.95937   1.97797
H    -1.09011   2.11100   1.57905
H    -1.59920   1.27287   3.06958
H    -1.50379   1.07677  -0.64483
H    -1.89498  -1.01721  -1.99441
H    -3.43931  -0.57594  -1.24938
H    -2.46410  -1.88090  -0.53154
28

C     1.80167   2.88984   0.53139
O     1.38872   1.52189   0.67441
C     1.03640   0.87923  -0.44687
O     1.13462   1.36432  -1.55699
C     0.39838  -0.44085  -0.16110
C     0.57102  -1.55851  -1.14243
C     0.50944  -2.96494  -0.60389
O     0.65560  -1.33248  -2.34246
N     0.49166  -0.83785   1.20086
N    -0.46502  -0.68183   1.95300
C    -1.81763   0.08758   1.28813
C    -1.84572   1.43349   2.00659
C    -1.66321   0.09858  -0.16748
C    -2.39805  -0.89666  -1.02298
H     0.99569   3.48674   0.07466
H     2.70496   2.95973  -0.08802
H     2.00728   3.25221   1.54631
H     1.34666  -3.17397   0.07780
H     0.52584  -3.67773  -1.44316
H    -0.42334  -3.10509  -0.02907
H    -2.62614  -0.60122   1.64164
H    -2.82185   1.96228   1.98197
H    -1.09030   2.11101   1.57856
H    -1.59728   1.27120   3.06889
H    -1.50228   1.07601  -0.64514
H    -1.89291  -1.01776  -1.99324
H    -3.43978  -0.57849  -1.25289
H    -2.46445  -1.88086  -0.53116
28

C     1.80120   2.89043   0.53157
O     1.38877   1.52267   0.67510
C     1.03903   0.87870  -0.44635
O     1.13405   1.36404  -1.55666
C     0.41834  -0.44577  -0.16066
C     0.57408  -1.56011  -1.14215
C     0.50875  -2.96625  -0.60402
O     0.65566  -1.33273  -2.34246
N     0.48799  -0.83479   1.19556
N    -0.44286  -0.69460   1.96288
C    -1.84112   0.09948   1.27864
C    -1.84663   1.43541   2.00746
C    -1.68190   0.10481  -0.16537
C    -2.39995  -0.89766  -1.02419
H     0.99558   3.48690   0.07468
H     2.70483   2.95982  -0.08798
H     2.00717   3.25247   1.54633
H     1.34645  -3.17498   0.07759
H     0.52514  -3.67807  -1.44322
H    -0.42364  -3.10504  -0.02915
H    -2.62631  -0.60160   1.64243
H    -2.82093   1.96520   1.98597
H    -1.09048   2.11101   1.57807
H    -1.59536   1.26953   3.06821
H    -1.50077   1.07525  -0.64546
H    -1.89084  -1.01831  -1.99207
H    -3.44024  -0.58104  -1.25640
H    -2.46480  -1.88082  -0.53078
28

C     1.80073   2.89102   0.53175
O     1.38881   1.52346   0.67578
C     1.04166   0.87818  -0.44583
O     1.13347   1.36376  -1.55634
C     0.43830  -0.45069  -0.16021
C     0.57713  -1.56171  -1.14187
C     0.50806  -2.96756  -0.60415
O     0.65571  -1.33299  -2.34246
N     0.48431  -0.83173   1.19026
N    -0.42070  -0.70737   1.97275
C    -1.86461   0.11137   1.26914
C    -1.84753   1.43733   2.00833
C    -1.70059   0.11105  -0.16326
C    -2.40184  -0.89866  -1.02540
H     0.99547   3.48707   0.07470
H     2.70470   2.95991  -0.08794
H     2.00706   3.25272   1.54634
H     1.34625  -3.17598   0.07738
H     0.52444  -3.67842  -1.44327
H    -0.42394  -3.10499  -0.02923
H    -2.62648  -0.60198   1.64323
H    -2.82001   1.96811   1.98997
H    -1.09067   2.11101   1.57758
H    -1.59343   1.26786   3.06752
H    -1.49927   1.07450  -0.64578
H    -1.88878  -1.01885  -1.99090
H    -3.44070  -0.58358  -1.25990
H    -2.46514  -1.88079  -0.53040
28

C     1.80027   2.89160   0.53193
O     1.38886   1.52424   0.67647
C     1.04429   0.87765  -0.44530
O     1.13290   1.36348  -1.55602
C     0.45826  -0.45562  -0.15977
C     0.58019  -1.56330  -1.14159
C     0.50737  -2.96887  -0.60427
O     0.65577  -1.33324  -2.34245
N     0.48063  -0.82867   1.18496
N    -0.39854  -0.72014   1.98262
C    -1.88810   0.12327   1.25965
C    -1.84843   1.43925   2.00920
C    -1.71928   0.11728  -0.16116
C    -2.40373  -0.89966  -1.02660
H     0.99535   3.48723   0.07472
H     2.70457   2.96000  -0.08790
H     2.00696   3.25297   1.54636
H     1.34604  -3.17699   0.07717
H     0.52374  -3.67877  -1.44333
H    -0.42425  -3.10495  -0.02931
H    -2.62665  -0.60235   1.64402
H    -2.81909   1.97102   1.99397
H    -1.09085   2.11101   1.57709
H    -1.59151   1.26618   3.06684
H    -1.49776   1.07374  -0.64609
H    -1.88671  -1.01940  -1.98973
H    -3.44117  -0.58613  -1.26341
H    -2.46549  -1.88075  -0.53003
28

C     1.79980   2.89219   0.53211
O     1.38891   1.52503   0.67716
C     1.04691   0.87712  -0.44478
O     1.13233   1.36320  -1.55569
C     0.47821  -0.46054  -0.15932
C     0.58324  -1.56490  -1.14132
C     0.50668  -2.97018  -0.60440
O     0.65582  -1.33350  -2.34245
N     0.47696  -0.82561   1.17967
N    -0.37638  -0.73290   1.99250
C    -1.91159   0.13516   1.25016
C    -1.84934   1.44117   2.01007
C    -1.73797   0.12351  -0.15905
C    -2.40562  -0.90066  -1.02781
H     0.99524   3.48740   0.07475
H     2.70444   2.96009  -0.08786
H     2.00685   3.25323   1.54637
H     1.34584  -3.17799   0.07696
H     0.52304  -3.67911  -1.44339
H    -0.42455  -3.10490  -0.02938
H    -2.62682  -0.60273   1.64481
H    -2.81818   1.97393   1.99797
H    -1.09104   2.11101   1.57660
H    -1.58958   1.26451   3.06615
H    -1.49625   1.07298  -0.64641
H    -1.88464  -1.01995  -1.98856
H    -3.44163  -0.58868  -1.26691
H    -2.46584  -1.88071  -0.52965
28

C     1.79934   2.89278   0.53229
O     1.38895   1.52581   0.67784
C     1.04954   0.87659  -0.44426
O     1.13176   1.36292  -1.55537
C     0.49817  -0.46546  -0.15887
C     0.58630  -1.56649  -1.14104
C     0.50599  -2.97150  -0.60452
O     0.65588  -1.33375  -2.34245
N     0.47328  -0.82255   1.17437
N    -0.35422  -0.74567   2.00237
C    -1.93508   0.14706   1.24066
C    -1.85024   1.44309   2.01093
C    -1.75666   0.12974  -0.15694
C    -2.40751  -0.90166  -1.02902
H     0.99513   3.48757   0.07477
H     2.70431   2.96019  -0.08782
H     2.00674   3.25348   1.54639
H     1.34563  -3.17900   0.07674
H     0.52234  -3.67946  -1.44345
H    -0.42485  -3.10485  -0.02946
H    -2.62699  -0.60311   1.64561
H    -2.81726   1.97684   2.00197
H    -1.09122   2.11101   1.57611
H    -1.58766   1.26284   3.06547
H    -1.49474   1.07222  -0.64673
H    -1.88258  -1.02050  -1.98739
H    -3.44209  -0.59123  -1.27042
H    -2.46619  -1.88067  -0.52927
28

C     1.79887   2.89337   0.53247
O     1.38900   1.52660   0.67853
C     1.05217   0.87606  -0.44373
O     1.13118   1.36264  -1.55504
C     0.51813  -0.47038  -0.15843
C     0.58936  -1.56809  -1.14076
C     0.50529  -2.97281  -0.60465
O     0.65594  -1.33401  -2.34244
N     0.46961  -0.81949   1.16907
N    -0.33206  -0.75844   2.01224
C    -1.95857   0.15896   1.23117
C    -1.85115   1.44501   2.01180
C    -1.77535   0.13597  -0.15483
C    -2.40940  -0.90266  -1.03023
H     0.99501   3.48773   0.07479
H     2.70418   2.96028  -0.08778
H     2.00663   3.25373   1.54640
H     1.34543  -3.18000   0.07653
H     0.52164  -3.67981  -1.44350
H    -0.42516  -3.10480  -0.02954
H    -2.62716  -0.60349   1.64640
H    -2.81634   1.97976   2.00597
H    -1.09141   2.11102   1.57562
H    -1.58574   1.26117   3.06478
H    -1.49323   1.07146  -0.64704
H    -1.88051  -1.02105  -1.98622
H    -3.44256  -0.59378  -1.27392
H    -2.46653  -1.88063  -0.52889
28

C     1.79841   2.89395   0.53265
O     1.38905   1.52739   0.67922
C     1.05480   0.87553  -0.44321
O     1.13061   1.36236  -1.55472
C     0.53809  -0.47530  -0.15798
C     0.59241  -1.56968  -1.14048
C     0.50460  -2.97412  -0.60477
O     0.65599  -1.33426  -2.34244
N     0.46593  -0.81642   1.16378
N    -0.30990  -0.77121   2.02212
C    -1.98206   0.17085   1.22167
C    -1.85205   1.44694   2.01267
C    -1.79403   0.14220  -0.15273
C    -2.41129  -0.90366  -1.03144
H     0.99490   3.48790   0.07481
H     2.70405   2.96037  -0.08773
H     2.00653   3.25398   1.54642
H     1.34522  -3.18101   0.07632
H     0.52093  -3.68015  -1.44356
H    -0.42546  -3.10476  -0.02962
H    -2.62733  -0.60387   1.64719
H    -2.81542   1.98267   2.00997
H    -1.09159   2.11102   1.57512
H    -1.58381   1.25950   3.06410
H    -1.49172   1.07070  -0.64736
H    -1.87845  -1.02159  -1.98505
H    -3.44302  -0.59632  -1.27743
H    -2.46688  -1.88059  -0.52851
28

C     1.79794   2.89454   0.53283
O     1.38909   1.52817   0.67990
C     1.05743   0.87501  -0.44269
O     1.13004   1.36208  -1.55439
C     0.55805  -0.48023  -0.15754
C     0.59547  -1.57128  -1.14020
C     0.50391  -2.97543  -0.60490
O     0.65605  -1.33452  -2.34244
N     0.46226  -0.81336   1.15848
N    -0.28774  -0.78398   2.03199
C    -2.00555   0.18275   1.21218
C    -1.85296   1.44886   2.01354
C    -1.81272   0.14843  -0.15062
C    -2.41318  -0.90466  -1.03264
H     0.99478   3.48806   0.07483
H     2.70392   2.96046  -0.08769
H     2.00642   3.25424   1.54643
H     1.34502  -3.18201   0.07611
H     0.52023  -3.68050  -1.44362
H    -0.42576  -3.10471  -0.02969
H    -2.62750  -0.60425   1.64799
H    -2.81451   1.98558   2.01397
H    -1.09178   2.11102   1.57463
H    -1.58189   1.25782   3.06341
H    -1.49021   1.06995  -0.64768
H    -1.87638  -1.02214  -1.98388
H    -3.44348  -0.59887  -1.28093
H    -2.46723  -1.88055  -0.52813
28

C     1.79748   2.89513   0.53301
O     1.38914   1.52896   0.68059
C     1.06006   0.87448  -0.44216
O     1.12946   1.36180  -1.55407
C     0.57801  -0.48515  -0.15709
C     0.59852  -1.57288  -1.13992
C     0.50322  -2.97674  -0.60502
O     0.65610  -1.33477  -2.34243
N     0.45858  -0.81030   1.15318
N    -0.26558  -0.79675   2.04186
C    -2.02904   0.19465   1.20269
C    -1.85386   1.45078   2.01441
C    -1.83141   0.15466  -0.14851
C    -2.41507  -0.90566  -1.03385
H     0.99467   3.48823   0.07486
H     2.70379   2.96055  -0.08765
H     2.00631   3.25449   1.54645
H     1.34481  -3.18302   0.07590
H     0.51953  -3.68085  -1.44368
H    -0.42606  -3.10466  -0.02977
H    -2.62767  -0.60463   1.64878
H    -2.81359   1.98849   2.01797
H    -1.09196   2.11102   1.57414
H    -1.57996   1.25615   3.06273
H    -1.48870   1.06919  -0.64799
H    -1.87431  -1.02269  -1.98271
H    -3.44395  -0.60142  -1.28444
H    -2.46758  -1.88051  -0.52775
28

C     1.79701   2.89571   0.53319
O     1.38919   1.52974   0.68128
C     1.06268   0.87395  -0.44164
O     1.12889   1.36152  -1.55375
C     0.59797  -0.49007  -0.15665
C     0.60158  -1.57447  -1.13964
C     0.50253  -2.97806  -0.60515
O     0.65616  -1.33503  -2.34243
N     0.45491  -0.80724   1.14788
N    -0.24342  -0.80951   2.05174
C    -2.05253   0.20654   1.19319
C    -1.85477   1.45270   2.01528
C    -1.85010   0.16089  -0.14640
C    -2.41696  -0.90666  -1.03506
H     0.99456   3.48839   0.07488
H     2.70366   2.96065  -0.08761
H     2.00620   3.25474   1.54646
H     1.34461  -3.18402   0.07569
H     0.51883  -3.68119  -1.44374
H    -0.42637  -3.10461  -0.02985
H    -2.62784  -0.60501   1.64957
H    -2.81267   1.99140   2.02197
H    -1.09215   2.11102   1.57365
H    -1.57804   1.25448   3.06204
H    -1.48719   1.06843  -0.64831
H    -1.87225  -1.02324  -1.98154
H    -3.44441  -0.60397  -1.28795
H    -2.46793  -1.88047  -0.52737
28

C     1.79655   2.89630   0.53337
O     1.38923   1.53053   0.68196
C     1.06531   0.87342  -0.44112
O     1.12832   1.36124  -1.55342
C     0.61793  -0.49499  -0.15620
C     0.60463  -1.57607  -1.13936
C     0.50184  -2.97937  -0.60527
O     0.65622  -1.33528  -2.34243
N     0.45123  -0.80418   1.14259
N    -0.22126  -0.82228   2.06161
C    -2.07602   0.21844   1.18370
C    -1.85567   1.45462   2.01614
C    -1.86879   0.16713  -0.14430
C    -2.41885  -0.90766  -1.03627
H     0.99444   3.48856   0.07490
H     2.70353   2.96074  -0.08757
H     2.00610   3.25499   1.54648
H     1.34440  -3.18502   0.07548
H     0.51813  -3.68154  -1.44379
H    -0.42667  -3.10457  -0.02992
H    -2.62801  -0.60538   1.65037
H    -2.81176   1.99431   2.02597
H    -1.09233   2.11102   1.57316
H    -1.57612   1.25281   3.06136
H    -1.48568   1.06767  -0.64863
H    -1.87018  -1.02379  -1.98037
H    -3.44487  -0.60652  -1.29145
H    -2.46827  -1.88044  -0.52699
28

C     1.79608   2.89689   0.53355
O     1.38928   1.53131   0.68265
C     1.06794   0.87289  -0.44059
O     1.12774   1.36096  -1.55310
C     0.63789  -0.49991  -0.15575
C     0.60769  -1.57766  -1.13908
C     0.50114  -2.98068  -0.60540
O     0.65627  -1.33554  -2.34242
N     0.44756  -0.80112   1.13729
N    -0.19910  -0.83505   2.07148
C    -2.09951   0.23034   1.17420
C    -1.85658   1.45654   2.01701
C    -1.88748   0.17336  -0.14219
C    -2.42075  -0.90866  -1.03748
H     0.99433   3.48872   0.07492
H     2.70340   2.96083  -0.08753
H     2.00599   3.25525   1.54649
H     1.34420  -3.18603   0.07527
H     0.51743  -3.68188  -1.44385
H    -0.42697  -3.10452  -0.03000
H    -2.62818  -0.60576   1.65116
H    -2.81084   1.99723   2.02997
H    -1.09252   2.11102   1.57267
H    -1.57419   1.25114   3.06067
H    -1.48417   1.06691  -0.64894
H    -1.86811  -1.02434  -1.97920
H    -3.44534  -0.60906  -1.29496
H    -2.46862  -1.88040  -0.52661
28

C     1.79562   2.89748   0.53373
O     1.38933   1.53210   0.68333
C     1.07057   0.87237  -0.44007
O     1.12717   1.36068  -1.55277
C     0.65785  -0.50484  -0.15531
C     0.61075  -1.57926  -1.13880
C     0.50045  -2.98199  -0.60553
O     0.65633  -1.33579  -2.34242
N     0.44388  -0.79806   1.13199
N    -0.17694  -0.84782   2.08135
C    -2.12300   0.24223   1.16471
C    -1.85748   1.45846   2.01788
C    -1.90617   0.17959  -0.14008
C    -2.42264  -0.90966  -1.03868
H     0.99422   3.48889   0.07494
H     2.70327   2.96092  -0.08749
H     2.00588   3.25550   1.54651
H     1.34399  -3.18703   0.07506
H     0.51673  -3.68223  -1.44391
H    -0.42728  -3.10447  -0.03008
H    -2.62835  -0.60614   1.65195
H    -2.80992   2.00014   2.03397
H    -1.09270   2.11103   1.57218
H    -1.57227   1.24947   3.05999
H    -1.48267   1.06616  -0.64926
H    -1.86605  -1.02488  -1.97803
H    -3.44580  -0.61161  -1.29846
H    -2.46897  -1.88036  -0.52623
28

C     1.79515   2.89806   0.53391
O     1.38937   1.53288   0.68402
C     1.07320   0.87184  -0.43955
O     1.12660   1.36041  -1.55245
C     0.67781  -0.50976  -0.15486
C     0.61380  -1.58086  -1.13853
C     0.49976  -2.98330  -0.60565
O     0.65638  -1.33605  -2.34241
N     0.44021  -0.79500   1.12669
N    -0.15478  -0.86059   2.09123
C    -2.14649   0.25413   1.15521
C    -1.85839   1.46038   2.01875
C    -1.92486   0.18582  -0.13797
C    -2.42453  -0.91066  -1.03989
H     0.99410   3.48905   0.07497
H     2.70314   2.96101  -0.08745
H     2.00577   3.25575   1.54652
H     1.34379  -3.18804   0.07485
H     0.51603  -3.68258  -1.44397
H    -0.42758  -3.10442  -0.03016
H    -2.62852  -0.60652   1.65275
H    -2.80900   2.00305   2.03797
H    -1.09289   2.11103   1.57169
H    -1.57034   1.24779   3.05931
H    -1.48116   1.06540  -0.64958
H    -1.86398  -1.02543  -1.97686
H    -3.44626  -0.61416  -1.30197
H    -2.46932  -1.88032  -0.52585
28

C     1.79468   2.89865   0.53409
O     1.38942   1.53367   0.68471
C     1.07583   0.87131  -0.43902
O     1.12603   1.36013  -1.55213
C     0.69777  -0.51468  -0.15442
C     0.61686  -1.58245  -1.13825
C     0.49907  -2.98461  -0.60578
O     0.65644  -1.33630  -2.34241
N     0.43653  -0.79194   1.12140
N    -0.13262  -0.87336   2.10110
C    -2.16998   0.26602   1.14572
C    -1.85929   1.46230   2.01962
C    -1.94354   0.19205  -0.13587
C    -2.42642  -0.91166  -1.04110
H     0.99399   3.48922   0.07499
H     2.70301   2.96111  -0.08740
H     2.00567   3.25601   1.54654
H     1.34358  -3.18904   0.07464
H     0.51533  -3.68292  -1.44402
H    -0.42788  -3.10438  -0.03023
H    -2.62869  -0.60690   1.65354
H    -2.80809   2.00596   2.04196
H    -1.09308   2.11103   1.57120
H    -1.56842   1.24612   3.05862
H    -1.47965   1.06464  -0.64989
H    -1.86191  -1.02598  -1.97569
H    -3.44673  -0.61671  -1.30547
H    -2.46966  -1.88028  -0.52548
28

C     1.79422   2.89924   0.53427
O     1.38947   1.53446   0.68539
C     1.07845   0.87078  -0.43850
O     1.12545   1.35985  -1.55180
C     0.71773  -0.51960  -0.15397
C     0.61991  -1.58405  -1.13797
C     0.49838  -2.98593  -0.60590
O     0.65649  -1.33656  -2.34241
N     0.43286  -0.78888   1.11610
N    -0.11046  -0.88612   2.11097
C    -2.19347   0.27792   1.13623
C    -1.86020   1.46422   2.02048
C    -1.96223   0.19828  -0.13376
C    -2.42831  -0.91266  -1.04231
H     0.99387   3.48938   0.07501
H     2.70288   2.96120  -0.08736
H     2.00556   3.25626   1.54655
H     1.34338  -3.19005   0.07443
H     0.51463  -3.68327  -1.44408
H    -0.42819  -3.10433  -0.03031
H    -2.62887  -0.60728   1.65434
H    -2.80717   2.00887   2.04596
H    -1.09326   2.11103   1.57070
H    -1.56650   1.24445   3.05794
H    -1.47814   1.06388  -0.65021
H    -1.85985  -1.02653  -1.97452
H    -3.44719  -0.61926  -1.30898
H    -2.47001  -1.88024  -0.52510
28

C     1.79468   2.89865   0.53409
O     1.38942   1.53367   0.68471
C     1.07583   0.87131  -0.43902
O     1.12603   1.36013  -1.55213
C     0.69777  -0.51468  -0.15442
C     0.61686  -1.58245  -1.13825
C     0.49907  -2.98461  -0.60578
O     0.65644  -1.33630  -2.34241
N     0.43653  -0.79194   1.12140
N    -0.13262  -0.87336   2.10110
C    -2.16998   0.26602   1.14572
C    -1.85929   1.46230   2.01962
C    -1.94354   0.19205  -0.13587
C    -2.42642  -0.91166  -1.04110
H     0.99399   3.48922   0.07499
H     2.70301   2.96111  -0.08740
H     2.00567   3.25601   1.54654
H     1.34358  -3.18904   0.07464
H     0.51533  -3.68292  -1.44402
H    -0.42788  -3.10438  -0.03023
H    -2.62869  -0.60690   1.65354
H    -2.80809   2.00596   2.04196
H    -1.09308   2.11103   1.57120
H    -1.56842   1.24612   3.05862
H    -1.47965   1.06464  -0.64989
H    -1.86191  -1.02598  -1.97569
H    -3.44673  -0.61671  -1.30547
H    -2.46966  -1.88028  -0.52548
28

C     1.79515   2.89806   0.53391
O     1.38937   1.53288   0.68402
C     1.07320   0.87184  -0.43955
O     1.12660   1.36041  -1.55245
C     0.67781  -0.50976  -0.15486
C     0.61380  -1.58086  -1.13853
C     0.49976  -2.98330  -0.60565
O     0.65638  -1.33605  -2.34241
N     0.44021  -0.79500   1.12669
N    -0.15478  -0.86059   2.09123
C    -2.14649   0.25413   1.15521
C    -1.85839   1.46038   2.01875
C    -1.92486   0.18582  -0.13797
C    -2.42453  -0.91066  -1.03989
H     0.99410   3.48905   0.07497
H     2.70314   2.96101  -0.08745
H     2.00577   3.25575   1.54652
H     1.34379  -3.18804   0.07485
H     0.51603  -3.68258  -1.44397
H    -0.42758  -3.10442  -0.03016
H    -2.62852  -0.60652   1.65275
H    -2.80900   2.00305   2.03797
H    -1.09289   2.11103   1.57169
H    -1.57034   1.24779   3.05931
H    -1.48116   1.06540  -0.64958
H    -1.86398  -1.02543  -1.97686
H    -3.44626  -0.61416  -1.30197
H    -2.46932  -1.88032  -0.52585
28

C     1.79562   2.89748   0.53373
O     1.38933   1.53210   0.68333
C     1.07057   0.87237  -0.44007
O     1.12717   1.36068  -1.55277
C     0.65785  -0.50484  -0.15531
C     0.61075  -1.57926  -1.13880
C     0.50045  -2.98199  -0.60553
O     0.65633  -1.33579  -2.34242
N     0.44388  -0.79806   1.13199
N    -0.17694  -0.84782   2.08135
C    -2.12300   0.24223   1.16471
C    -1.85748   1.45846   2.01788
C    -1.90617   0.17959  -0.14008
C    -2.42264  -0.90966  -1.03868
H     0.99422   3.48889   0.07494
H     2.70327   2.96092  -0.08749
H     2.00588   3.25550   1.54651
H     1.34399  -3.18703   0.07506
H     0.51673  -3.68223  -1.44391
H    -0.42728  -3.10447  -0.03008
H    -2.62835  -0.60614   1.65195
H    -2.80992   2.00014   2.03397
H    -1.09270   2.11103   1.57218
H    -1.57227   1.24947   3.05999
H    -1.48267   1.06616  -0.64926
H    -1.86605  -1.02488  -1.97803
H    -3.44580  -0.61161  -1.29846
H    -2.46897  -1.88036  -0.52623
28

C     1.79608   2.89689   0.53355
O     1.38928   1.53131   0.68265
C     1.06794   0.87289  -0.44059
O     1.12774   1.36096  -1.55310
C     0.63789  -0.49991  -0.15575
C     0.60769  -1.57766  -1.13908
C     0.50114  -2.98068  -0.60540
O     0.65627  -1.33554  -2.34242
N     0.44756  -0.80112   1.13729
N    -0.19910  -0.83505   2.07148
C    -2.09951   0.23034   1.17420
C    -1.85658   1.45654   2.01701
C    -1.88748   0.17336  -0.14219
C    -2.42075  -0.90866  -1.03748
H     0.99433   3.48872   0.07492
H     2.70340   2.96083  -0.08753
H     2.00599   3.25525   1.54649
H     1.34420  -3.18603   0.07527
H     0.51743  -3.68188  -1.44385
H    -0.42697  -3.10452  -0.03000
H    -2.62818  -0.60576   1.65116
H    -2.81084   1.99723   2.02997
H    -1.09252   2.11102   1.57267
H    -1.57419   1.25114   3.06067
H    -1.48417   1.06691  -0.64894
H    -1.86811  -1.02434  -1.97920
H    -3.44534  -0.60906  -1.29496
H    -2.46862  -1.88040  -0.52661
28

C     1.79655   2.89630   0.53337
O     1.38923   1.53053   0.68196
C     1.06531   0.87342  -0.44112
O     1.12832   1.36124  -1.55342
C     0.61793  -0.49499  -0.15620
C     0.60463  -1.57607  -1.13936
C     0.50184  -2.97937  -0.60527
O     0.65622  -1.33528  -2.34243
N     0.45123  -0.80418   1.14259
N    -0.22126  -0.82228   2.06161
C    -2.07602   0.21844   1.18370
C    -1.85567   1.45462   2.01614
C    -1.86879   0.16713  -0.14430
C    -2.41885  -0.90766  -1.03627
H     0.99444   3.48856   0.07490
H     2.70353   2.96074  -0.08757
H     2.00610   3.25499   1.54648
H     1.34440  -3.18502   0.07548
H     0.51813  -3.68154  -1.44379
H    -0.42667  -3.10457  -0.02992
H    -2.62801  -0.60538   1.65037
H    -2.81176   1.99431   2.02597
H    -1.09233   2.11102   1.57316
H    -1.57612   1.25281   3.06136
H    -1.48568   1.06767  -0.64863
H    -1.87018  -1.02379  -1.98037
H    -3.44487  -0.60652  -1.29145
H    -2.46827  -1.88044  -0.52699
28

C     1.79701   2.89571   0.53319
O     1.38919   1.52974   0.68128
C     1.06268   0.87395  -0.44164
O     1.12889   1.36152  -1.55375
C     0.59797  -0.49007  -0.15665
C     0.60158  -1.57447  -1.13964
C     0.50253  -2.97806  -0.60515
O     0.65616  -1.33503  -2.34243
N     0.45491  -0.80724   1.14788
N    -0.24342  -0.80951   2.05174
C    -2.05253   0.20654   1.19319
C    -1.85477   1.45270   2.01528
C    -1.85010   0.16089  -0.14640
C    -2.41696  -0.90666  -1.03506
H     0.99456   3.48839   0.07488
H     2.70366   2.96065  -0.08761
H     2.00620   3.25474   1.54646
H     1.34461  -3.18402   0.07569
H     0.51883  -3.68119  -1.44374
H    -0.42637  -3.10461  -0.02985
H    -2.62784  -0.60501   1.64957
H    -2.81267   1.99140   2.02197
H    -1.09215   2.11102   1.57365
H    -1.57804   1.25448   3.06204
H    -1.48719   1.06843  -0.64831
H    -1.87225  -1.02324  -1.98154
H    -3.44441  -0.60397  -1.28795
H    -2.46793  -1.88047  -0.52737
28

C     1.79748   2.89513   0.53301
O     1.38914   1.52896   0.68059
C     1.06006   0.87448  -0.44216
O     1.12946   1.36180  -1.55407
C     0.57801  -0.48515  -0.15709
C     0.59852  -1.57288  -1.13992
C     0.50322  -2.97674  -0.60502
O     0.65610  -1.33477  -2.34243
N     0.45858  -0.81030   1.15318
N    -0.26558  -0.79675   2.04186
C    -2.02904   0.19465   1.20269
C    -1.85386   1.45078   2.01441
C    -1.83141   0.15466  -0.14851
C    -2.41507  -0.90566  -1.03385
H     0.99467   3.48823   0.07486
H     2.70379   2.96055  -0.08765
H     2.00631   3.25449   1.54645
H     1.34481  -3.18302   0.07590
H     0.51953  -3.68085  -1.44368
H    -0.42606  -3.10466  -0.02977
H    -2.62767  -0.60463   1.64878
H    -2.81359   1.98849   2.01797
H    -1.09196   2.11102   1.57414
H    -1.57996   1.25615   3.06273
H    -1.48870   1.06919  -0.64799
H    -1.87431  -1.02269  -1.98271
H    -3.44395  -0.60142  -1.28444
H    -2.46758  -1.88051  -0.52775
28

C     1.79794   2.89454   0.53283
O     1.38909   1.52817   0.67990
C     1.05743   0.87501  -0.44269
O     1.13004   1.36208  -1.55439
C     0.55805  -0.48023  -0.15754
C     0.59547  -1.57128  -1.14020
C     0.50391  -2.97543  -0.60490
O     0.65605  -1.33452  -2.34244
N     0.46226  -0.81336   1.15848
N    -0.28774  -0.78398   2.03199
C    -2.00555   0.18275   1.21218
C    -1.85296   1.44886   2.01354
C    -1.81272   0.14843  -0.15062
C    -2.41318  -0.90466  -1.03264
H     0.99478   3.48806   0.07483
H     2.70392   2.96046  -0.08769
H     2.00642   3.25424   1.54643
H     1.34502  -3.18201   0.07611
H     0.52023  -3.68050  -1.44362
H    -0.42576  -3.10471  -0.02969
H    -2.62750  -0.60425   1.64799
H    -2.81451   1.98558   2.01397
H    -1.09178   2.11102   1.57463
H    -1.58189   1.25782   3.06341
H    -1.49021   1.06995  -0.64768
H    -1.87638  -1.02214  -1.98388
H    -3.44348  -0.59887  -1.28093
H    -2.46723  -1.88055  -0.52813
28

C     1.79841   2.89395   0.53265
O     1.38905   1.52739   0.67922
C     1.05480   0.87553  -0.44321
O     1.13061   1.36236  -1.55472
C     0.53809  -0.47530  -0.15798
C     0.59241  -1.56968  -1.14048
C     0.50460  -2.97412  -0.60477
O     0.65599  -1.33426  -2.34244
N     0.46593  -0.81642   1.16378
N    -0.30990  -0.77121   2.02212
C    -1.98206   0.17085   1.22167
C    -1.85205   1.44694   2.01267
C    -1.79403   0.14220  -0.15273
C    -2.41129  -0.90366  -1.03144
H     0.99490   3.48790   0.07481
H     2.70405   2.96037  -0.08773
H     2.00653   3.25398   1.54642
H     1.34522  -3.18101   0.07632
H     0.52093  -3.68015  -1.44356
H    -0.42546  -3.10476  -0.02962
H    -2.62733  -0.60387   1.64719
H    -2.81542   1.98267   2.00997
H    -1.09159   2.11102   1.57512
H    -1.58381   1.25950   3.06410
H    -1.49172   1.07070  -0.64736
H    -1.87845  -1.02159  -1.98505
H    -3.44302  -0.59632  -1.27743
H    -2.46688  -1.88059  -0.52851
28

C     1.79887   2.89337   0.53247
O     1.38900   1.52660   0.67853
C     1.05217   0.87606  -0.44373
O     1.13118   1.36264  -1.55504
C     0.51813  -0.47038  -0.15843
C     0.58936  -1.56809  -1.14076
C     0.50529  -2.97281  -0.60465
O     0.65594  -1.33401  -2.34244
N     0.46961  -0.81949   1.16907
N    -0.33206  -0.75844   2.01224
C    -1.95857   0.15896   1.23117
C    -1.85115   1.44501   2.01180
C    -1.77535   0.13597  -0.15483
C    -2.40940  -0.90266  -1.03023
H     0.99501   3.48773   0.07479
H     2.70418   2.96028  -0.08778
H     2.00663   3.25373   1.54640
H     1.34543  -3.18000   0.07653
H     0.52164  -3.67981  -1.44350
H    -0.42516  -3.10480  -0.02954
H    -2.62716  -0.60349   1.64640
H    -2.81634   1.97976   2.00597
H    -1.09141   2.11102   1.57562
H    -1.58574   1.26117   3.06478
H    -1.49323   1.07146  -0.64704
H    -1.88051  -1.02105  -1.98622
H    -3.44256  -0.59378  -1.27392
H    -2.46653  -1.88063  -0.52889
28

C     1.79934   2.89278   0.53229
O     1.38895   1.52581   0.67784
C     1.04954   0.87659  -0.44426
O     1.13176   1.36292  -1.55537
C     0.49817  -0.46546  -0.15887
C     0.58630  -1.56649  -1.14104
C     0.50599  -2.97150  -0.60452
O     0.65588  -1.33375  -2.34245
N     0.47328  -0.82255   1.17437
N    -0.35422  -0.74567   2.00237
C    -1.93508   0.14706   1.24066
C    -1.85024   1.44309   2.01093
C    -1.75666   0.12974  -0.15694
C    -2.40751  -0.90166  -1.02902
H     0.99513   3.48757   0.07477
H     2.70431   2.96019  -0.08782
H     2.00674   3.25348   1.54639
H     1.34563  -3.17900   0.07674
H     0.52234  -3.67946  -1.44345
H    -0.42485  -3.10485  -0.02946
H    -2.62699  -0.60311   1.64561
H    -2.81726   1.97684   2.00197
H    -1.09122   2.11101   1.57611
H    -1.58766   1.26284   3.06547
H    -1.49474   1.07222  -0.64673
H    -1.88258  -1.02050  -1.98739
H    -3.44209  -0.59123  -1.27042
H    -2.46619  -1.88067  -0.52927
28

C     1.79980   2.89219   0.53211
O     1.38891   1.52503   0.67716
C     1.04691   0.87712  -0.44478
O     1.13233   1.36320  -1.55569
C     0.47821  -0.46054  -0.15932
C     0.58324  -1.56490  -1.14132
C     0.50668  -2.97018  -0.60440
O     0.65582  -1.33350  -2.34245
N     0.47696  -0.82561   1.17967
N    -0.37638  -0.73290   1.99250
C    -1.91159   0.13516   1.25016
C    -1.84934   1.44117   2.01007
C    -1.73797   0.12351  -0.15905
C    -2.40562  -0.90066  -1.02781
H     0.99524   3.48740   0.07475
H     2.70444   2.96009  -0.08786
H     2.00685   3.25323   1.54637
H     1.34584  -3.17799   0.07696
H     0.52304  -3.67911  -1.44339
H    -0.42455  -3.10490  -0.02938
H    -2.62682  -0.60273   1.64481
H    -2.81818   1.97393   1.99797
H    -1.09104   2.11101   1.57660
H    -1.58958   1.26451   3.06615
H    -1.49625   1.07298  -0.64641
H    -1.88464  -1.01995  -1.98856
H    -3.44163  -0.58868  -1.26691
H    -2.46584  -1.88071  -0.52965
28

C     1.80027   2.89160   0.53193
O     1.38886   1.52424   0.67647
C     1.04429   0.87765  -0.44530
O     1.13290   1.36348  -1.55602
C     0.45826  -0.45562  -0.15977
C     0.58019  -1.56330  -1.14159
C     0.50737  -2.96887  -0.60427
O     0.65577  -1.33324  -2.34245
N     0.48063  -0.82867   1.18496
N    -0.39854  -0.72014   1.98262
C    -1.88810   0.12327   1.25965
C    -1.84843   1.43925   2.00920
C    -1.71928   0.11728  -0.16116
C    -2.40373  -0.89966  -1.02660
H     0.99535   3.48723   0.07472
H     2.70457   2.96000  -0.08790
H     2.00696   3.25297   1.54636
H     1.34604  -3.17699   0.07717
H     0.52374  -3.67877  -1.44333
H    -0.42425  -3.10495  -0.02931
H    -2.62665  -0.60235   1.64402
H    -2.81909   1.97102   1.99397
H    -1.09085   2.11101   1.57709
H    -1.59151   1.26618   3.06684
H    -1.49776   1.07374  -0.64609
H    -1.88671  -1.01940  -1.98973
H    -3.44117  -0.58613  -1.26341
H    -2.46549  -1.88075  -0.53003
28

C     1.80073   2.89102   0.53175
O     1.38881   1.52346   0.67578
C     1.04166   0.87818  -0.44583
O     1.13347   1.36376  -1.55634
C     0.43830  -0.45069  -0.16021
C     0.57713  -1.56171  -1.14187
C     0.50806  -2.96756  -0.60415
O     0.65571  -1.33299  -2.34246
N     0.48431  -0.83173   1.19026
N    -0.42070  -0.70737   1.97275
C    -1.86461   0.11137   1.26914
C    -1.84753   1.43733   2.00833
C    -1.70059   0.11105  -0.16326
C    -2.40184  -0.89866  -1.02540
H     0.99547   3.48707   0.07470
H     2.70470   2.95991  -0.08794
H     2.00706   3.25272   1.54634
H     1.34625  -3.17598   0.07738
H     0.52444  -3.67842  -1.44327
H    -0.42394  -3.10499  -0.02923
H    -2.62648  -0.60198   1.64323
H    -2.82001   1.96811   1.98997
H    -1.09067   2.11101   1.57758
H    -1.59343   1.26786   3.06752
H    -1.49927   1.07450  -0.64578
H    -1.88878  -1.01885  -1.99090
H    -3.44070  -0.58358  -1.25990
H    -2.46514  -1.88079  -0.53040
28

C     1.80120   2.89043   0.53157
O     1.38877   1.52267   0.67510
C     1.03903   0.87870  -0.44635
O     1.13405   1.36404  -1.55666
C     0.41834  -0.44577  -0.16066
C     0.57408  -1.56011  -1.14215
C     0.50875  -2.96625  -0.60402
O     0.65566  -1.33273  -2.34246
N     0.48799  -0.83479   1.19556
N    -0.44286  -0.69460   1.96288
C    -1.84112   0.09948   1.27864
C    -1.84663   1.43541   2.00746
C    -1.68190   0.10481  -0.16537
C    -2.39995  -0.89766  -1.02419
H     0.99558   3.48690   0.07468
H     2.70483   2.95982  -0.08798
H     2.00717   3.25247   1.54633
H     1.34645  -3.17498   0.07759
H     0.52514  -3.67807  -1.44322
H    -0.42364  -3.10504  -0.02915
H    -2.62631  -0.60160   1.64243
H    -2.82093   1.96520   1.98597
H    -1.09048   2.11101   1.57807
H    -1.59536   1.26953   3.06821
H    -1.50077   1.07525  -0.64546
H    -1.89084  -1.01831  -1.99207
H    -3.44024  -0.58104  -1.25640
H    -2.46480  -1.88082  -0.53078
28

C     1.80167   2.88984   0.53139
O     1.38872   1.52189   0.67441
C     1.03640   0.87923  -0.44687
O     1.13462   1.36432  -1.55699
C     0.39838  -0.44085  -0.16110
C     0.57102  -1.55851  -1.14243
C     0.50944  -2.96494  -0.60389
O     0.65560  -1.33248  -2.34246
N     0.49166  -0.83785   1.20086
N    -0.46502  -0.68183   1.95300
C    -1.81763   0.08758   1.28813
C    -1.84572   1.43349   2.00659
C    -1.66321   0.09858  -0.16748
C    -2.39805  -0.89666  -1.02298
H     0.99569   3.48674   0.07466
H     2.70496   2.95973  -0.08802
H     2.00728   3.25221   1.54631
H     1.34666  -3.17397   0.07780
H     0.52584  -3.67773  -1.44316
H    -0.42334  -3.10509  -0.02907
H    -2.62614  -0.60122   1.64164
H    -2.82185   1.96228   1.98197
H    -1.09030   2.11101   1.57856
H    -1.59728   1.27120   3.06889
H    -1.50228   1.07601  -0.64514
H    -1.89291  -1.01776  -1.99324
H    -3.43978  -0.57849  -1.25289
H    -2.46445  -1.88086  -0.53116
28

C     1.80213   2.88926   0.53121
O     1.38867   1.52110   0.67373
C     1.03377   0.87976  -0.44740
O     1.13519   1.36460  -1.55731
C     0.37842  -0.43593  -0.16155
C     0.56796  -1.55692  -1.14271
C     0.51014  -2.96363  -0.60377
O     0.65555  -1.33222  -2.34247
N     0.49534  -0.84091   1.20615
N    -0.48718  -0.66906   1.94313
C    -1.79414   0.07568   1.29763
C    -1.84482   1.43157   2.00573
C    -1.64452   0.09235  -0.16959
C    -2.39616  -0.89566  -1.02177
H     0.99581   3.48657   0.07464
H     2.70509   2.95963  -0.08807
H     2.00739   3.25196   1.54630
H     1.34686  -3.17297   0.07801
H     0.52654  -3.67738  -1.44310
H    -0.42303  -3.10514  -0.02900
H    -2.62597  -0.60084   1.64085
H    -2.82276   1.95937   1.97797
H    -1.09011   2.11100   1.57905
H    -1.59920   1.27287   3.06958
H    -1.50379   1.07677  -0.64483
H    -1.89498  -1.01721  -1.99441
H    -3.43931  -0.57594  -1.24938
H    -2.46410  -1.88090  -0.53154
28

C     1.80260   2.88867   0.53103
O     1.38863   1.52032   0.67304
C     1.03114   0.88029  -0.44792
O     1.13577   1.36487  -1.55764
C     0.35846  -0.43101  -0.16200
C     0.56491  -1.55532  -1.14299
C     0.51083  -2.96231  -0.60364
O     0.65549  -1.33197  -2.34247
N     0.49901  -0.84397   1.21145
N    -0.50934  -0.65629   1.93326
C    -1.77064   0.06379   1.30712
C    -1.84391   1.42965   2.00486
C    -1.62584   0.08612  -0.17169
C    -2.39427  -0.89467  -1.02056
H     0.99592   3.48641   0.07461
H     2.70522   2.95954  -0.08811
H     2.00749   3.25171   1.54628
H     1.34707  -3.17196   0.07822
H     0.52724  -3.67703  -1.44304
H    -0.42273  -3.10518  -0.02892
H    -2.62580  -0.60046   1.64005
H    -2.82368   1.95646   1.97397
H    -1.08993   2.11100   1.57954
H    -1.60113   1.27454   3.07026
H    -1.50530   1.07753  -0.64451
H    -1.89704  -1.01666  -1.99558
H    -3.43885  -0.57339  -1.24588
H    -2.46375  -1.88094  -0.53192
28

C     1.80306   2.88808   0.53085
O     1.38858   1.51953   0.67235
C     1.02852   0.88082  -0.44844
O     1.13634   1.36515  -1.55796
C     0.33850  -0.42608  -0.16244
C     0.56185  -1.55373  -1.14327
C     0.51152  -2.96100  -0.60352
O     0.65543  -1.33171  -2.34248
N     0.50269  -0.84703   1.21675
N    -0.53150  -0.64353   1.92338
C    -1.74715   0.05189   1.31662
C    -1.84301   1.42773   2.00399
C    -1.60715   0.07989  -0.17380
C    -2.39238  -0.89367  -1.01936
H     0.99604   3.48624   0.07459
H     2.70535   2.95945  -0.08815
H     2.00760   3.25146   1.54627
H     1.34727  -3.17096   0.07843
H     0.52794  -3.67669  -1.44298
H    -0.42243  -3.10523  -0.02884
H    -2.62563  -0.60008   1.63926
H    -2.82460   1.95355   1.96997
H    -1.08974   2.11100   1.58004
H    -1.60305   1.27621   3.07095
H    -1.50681   1.07829  -0.64419
H    -1.89911  -1.01611  -1.99675
H    -3.43839  -0.57084  -1.24237
H    -2.46341  -1.88098  -0.53230
