14

C 2.932799482 0.765654797 0.603004236
C 0.610717891 0.318233432 -0.980528941
C -0.338612730 -2.313367441 -1.229426167
C -2.266256512 -0.563964158 -0.179221380
O -2.888667083 -0.570919635 2.346813817
C -1.813305109 1.860257773 2.236822043
H 2.823680554 -0.254911336 2.385183307
H 3.178315024 2.759234865 1.036984622
H 4.579461511 0.080242798 -0.449544075
H 0.483673039 1.469524620 -2.670557331
H 0.440048107 -3.673355844 0.086092861
H -0.773526451 -3.052459246 -3.086567045
H -3.734415446 0.094202016 -1.449220893
H -3.260600862 3.053294712 1.256443997

