16

C 1.127761944 -0.280153580 -3.876803418
N 1.927076448 1.009380637 -1.585791929
C 2.859300739 -0.768436833 0.349467147
C 0.577684193 -1.221193103 1.974619350
C -1.121848896 0.518529737 1.376504590
O -0.350352143 2.078905020 -0.528723713
C -3.656641613 1.114841225 2.414850174
H 2.806009725 -1.073622538 -4.771708339
H 0.294817760 1.097596151 -5.157762397
H -0.242292199 -1.797277245 -3.513102684
H 3.589234553 -2.465083460 -0.575487027
H 4.415728534 0.094699789 1.406060342
H 0.391058356 -2.633645651 3.429724150
H -5.100086992 0.909402163 0.955615245
H -4.101344947 -0.139898220 3.982613001
H -3.710711912 3.065844138 3.082592497

