16

C 2.463603804 0.000380591 -3.458466488
N 1.368079927 0.440932253 -0.986159002
C 2.013651945 -1.325145746 0.973887800
C -0.555384064 -1.337784329 -0.188031567
C -2.825209588 -0.369697723 1.199414595
O -4.678098998 -1.688285213 1.376300122
C -2.689871296 2.242058153 2.315985373
H 4.308977830 0.913890810 -3.549875432
H 1.250412407 0.837039541 -4.899170876
H 2.703555067 -2.018794665 -3.886603405
H 3.229633315 -2.909797414 0.496808790
H 2.299683121 -0.542998686 2.845723189
H -0.979719741 -2.926539594 -1.419511299
H -4.407338925 2.617990763 3.379504697
H -1.040384768 2.443943472 3.537721771
H -2.461590018 3.622807786 0.801486121

