16

C 1.502011261 -0.693845696 -3.914698493
N 2.742950188 0.543625016 -1.880383205
C 2.969457259 -0.702116441 0.410187713
C 0.269226314 -0.918885923 1.279060107
C -1.370870259 1.164331130 1.008695101
O -0.981822383 2.942243804 -0.445185006
C -3.660873069 1.237475871 2.740193758
H 2.736060152 -0.530572092 -5.569375682
H -0.211393665 0.373075722 -4.385426474
H 0.986905084 -2.671708099 -3.556945256
H 3.567990497 -2.679416140 0.141668648
H 4.257674638 0.257832702 1.702380415
H -0.421482020 -2.725209911 1.944778458
H -5.333966452 1.672854786 1.620899034
H -3.951083941 -0.522759057 3.765817951
H -3.395391908 2.762960592 4.100994195

