14

C 4.121209238 -1.064656260 1.331872510
C 2.781359551 0.015540730 -0.481493977
C 0.386396798 -1.070472837 -1.554094400
C -1.816737683 0.699243434 -1.323596794
C -3.873344142 0.254213442 0.045253234
H -4.045144586 -1.477767549 1.110221052
H -5.417461487 1.596379762 0.149392299
O -1.434352395 2.832526985 -2.706300650
H -2.841164243 3.956617116 -2.483378919
H 0.664592036 -1.465926998 -3.567601441
H -0.071300293 -2.848708219 -0.620961888
H 3.400369976 1.800114613 -1.284323448
H 3.542478401 -2.841591926 2.176796404
H 5.842924310 -0.215819139 2.042081476

