16

C 2.842743487 -0.667340321 2.071823932
C 2.346704269 -0.363441161 -0.460190188
C 0.291008053 -1.704148934 -1.857434900
C -1.505113096 0.327681723 -1.164514131
C -2.785776654 0.410109838 1.111857442
O -1.590773946 2.267981926 -2.864783250
H 2.377407405 -2.447482929 2.988046853
H 4.441649227 0.326441873 2.879912378
H 0.810841777 0.761497418 3.481267224
H 3.167027804 1.238661145 -1.437347214
H 0.586003637 -1.870688381 -3.885045099
H -0.215675879 -3.523016206 -1.038110124
H -3.219101210 -1.379358455 2.010398555
H -4.224227260 1.853028815 1.360698940
H -0.878036243 1.049594708 3.074495493
H -2.442171778 3.687061063 -2.122665974

