15

O -0.116911667 -3.039449539 -3.063508720
C -0.407071555 -1.074476675 -1.287817136
C 1.892240537 -1.100187098 0.407628552
C 1.789416930 0.721534870 2.622678115
O 2.017716500 3.292247444 1.919586783
C -2.976622835 -0.328952677 -0.444467383
C -1.851893278 1.211844892 -1.996633808
H -1.516481556 -2.988188602 -4.215137413
H 2.109095133 -3.023220817 1.137073267
H 3.566045194 -0.698896423 -0.734561451
H 3.374459242 0.344215277 3.885323928
H 0.053790374 0.415377922 3.719630399
H -4.662212297 -0.795693392 0.601354732
H -1.957045785 2.896217464 -3.141278301
H 0.474202923 3.800780549 1.117362063

