15

O -0.527207019 -2.891526314 -2.960895061
C -0.259424494 -0.991997443 -1.170426196
C 2.131092962 -1.249533212 0.440294924
C 1.712471515 0.728589822 2.451496140
O 1.920008513 3.052059398 1.617732061
C -2.349704720 -0.060269338 0.476137568
C -1.426570805 1.546960948 -1.373170414
H -1.439290401 -2.239665967 -4.382222103
H 2.221141511 -3.161733339 1.209334296
H 3.840817552 -0.854756933 -0.639368954
H 2.170715681 0.436725780 4.433657935
H -0.851879126 0.307377787 2.543205494
H -4.200013349 -0.673582559 1.086104594
H -2.318768561 2.621937947 -2.857047920
H 0.522739064 3.038606703 0.041779293

