8

O 3.019067445 0.218333136 1.156238076
C 1.010148432 -0.624097227 -0.062329045
N 0.248861340 -2.727120292 -0.941414274
O -1.452678241 -1.359008504 0.936669966
C -2.300252779 1.636661939 -0.779534098
N -0.240809293 2.132257771 -1.508649057
H 3.996562676 -1.221031984 1.694513863
H -4.286353311 1.947064610 -0.497201834

