11

C -0.217033987 1.899868133 0.571672369
C 1.928495462 -0.019347696 0.507399968
C 0.670560585 0.813791299 -1.887724300
N -1.232191384 -1.318000408 -1.786303606
C -2.121723492 -0.299776099 0.682688979
C -0.039605353 -2.160858964 0.620694208
H -0.219739130 3.815452836 1.268406681
H 3.855585365 0.172793325 1.143353072
H 1.390623717 1.671957469 -3.594876689
H -4.064200566 -0.450500598 1.298771878
H 0.049228745 -4.125379315 1.175917438

