11

C -0.118370309 1.809453469 0.789799960
C 1.920944400 -0.066431489 1.558490224
C 0.986070940 0.848214947 -1.636810226
N -0.786011891 -1.341695873 -1.704069055
C -2.115517121 -0.305607907 0.544977626
C -0.053633527 -2.154226782 0.867511867
H -0.228355469 3.761033296 1.383872727
H 3.047908388 0.041489164 -0.893924285
H 1.486101770 1.982498978 -3.274841120
H -4.137524283 -0.420154922 0.785806591
H -0.063698000 -4.135503617 1.362929252

