13

N -4.123644736 -0.334869201 -0.100346366
C -1.588680810 -0.142867263 0.211710629
C -0.168052777 1.943829550 0.864453761
C 2.347002090 1.052755237 0.988461973
C 2.482444317 -1.691491681 0.521060779
O 3.457407825 0.126582322 -1.958776679
N -0.070221486 -2.205194963 -0.044124746
H -4.802350097 -1.756067610 -1.157437277
H -5.123977004 1.274518717 -0.152826252
H -0.841550582 3.858248518 1.029161931
H 3.905549535 2.118921633 1.766009780
H 5.235776093 -0.231167986 -1.835859651
H -0.732868521 -3.979898409 -0.118751146

