13

N -1.003574642 1.470528745 -0.941122198
C -2.624313484 -0.082168807 0.420511570
O -2.477008236 -2.520932501 0.166705818
C -0.983761279 -3.866836946 -1.206390821
C 3.284023205 1.778692885 1.727974639
C 1.371997310 1.997106183 -0.172784595
N 3.351233960 3.106598746 -0.843254019
H -1.482738379 2.077243327 -2.689860940
H -4.048050173 0.567468277 1.716763971
H 0.435072099 -2.968174607 -2.365999601
H -1.259885264 -5.875622203 -1.049314934
H 3.237931103 2.977368880 3.395412903
H 4.375760487 0.048012952 1.910355868

