18

C 5.182848058 0.469150286 -0.418874161
C 2.496136025 0.042356378 -1.360188015
C 0.525986974 0.885637874 0.556299145
C -2.208786898 0.532479676 -0.153063980
C -4.060736131 1.383243845 1.823824912
H -6.008283339 1.095170159 1.219020333
H -3.772970337 0.352029521 3.592008482
H -3.802808546 3.388842288 2.252174235
C -2.969071282 -0.443312042 -2.335463649
H -4.961745906 -0.660528123 -2.757154295
H -1.652401883 -1.058344782 -3.775348822
H 0.818552615 2.891691476 0.996654635
H 0.851063501 -0.104240600 2.350140112
H 2.215833781 1.065625613 -3.134766002
H 2.224560706 -1.961196285 -1.792185189
H 5.522740435 2.465059064 -0.010530329
H 6.574242613 -0.127227644 -1.819330028
H 5.543514818 -0.591664897 1.315940418

