20

C 5.265160768 0.461984142 -0.407886329
C 2.620567083 -0.490350462 -1.023682311
C 0.596069868 0.865346524 0.503731405
C -2.050284399 -0.157968991 0.233187309
C -3.947091970 0.813195922 2.114265858
C -2.980711371 -0.768907488 -2.226120089
H 5.444397813 2.481593789 -0.800213730
H 6.691558833 -0.522200303 -1.524806933
H 5.714332699 0.167951205 1.585689903
H 2.257039259 -0.253225398 -3.042438538
H 2.497594837 -2.519424462 -0.626313366
H 0.473910884 2.847929482 -0.094839968
H 1.105759900 0.850051062 2.506799410
H -1.436623147 -2.707661442 1.756384139
H -5.705497228 -0.251672459 2.012970623
H -3.217691399 0.737211962 4.038550557
H -4.360208154 2.773335170 1.605267805
H -4.992520096 -0.944727361 -2.521852647
H -1.710808178 -0.970600168 -3.806719032
H -2.203745921 -2.566566931 -0.231474896

