10

O 4.430448046 1.756672228 -0.378377556
C 2.252828685 1.197487584 -0.527975854
C 0.985145523 -0.663626537 -2.195681137
H 2.011309667 -1.787173711 -3.551313986
C -1.465245373 -0.639202016 -1.692831912
H -2.934196481 -1.760518255 -2.564075686
C -1.965553710 1.246670768 0.348013853
H -2.769223239 0.380793628 2.043836824
H -3.226578082 2.763699399 -0.267936897
O 0.432389217 2.279988943 0.941390747

