12

O 4.284703410 2.580799668 -1.278383169
C 2.362863903 1.514589354 -0.746611743
C 1.434672042 -0.957966385 -1.323619150
C -0.988964848 -1.295502463 -0.051940521
C -1.733576694 1.370620134 0.672253609
O 0.529827087 2.754929936 0.740130871
H 2.382792426 -2.336956004 -2.475034871
H 0.699585304 -2.185408850 1.340922522
H -2.395137647 -2.617914285 -0.744775024
H -0.857665373 -2.454750230 2.343896816
H -2.708050083 1.528182230 2.478489649
H -2.972141974 2.058978330 -0.842200535

