14

O 5.546692506 -0.777253388 -1.299559554
C 3.940224365 -0.127886894 0.234495623
C 1.977998255 -1.882443952 0.658487559
C -0.211210532 -2.061577837 -1.002381866
C -2.318415749 -0.438464668 0.272711668
C -1.713707093 2.365963337 0.482252627
H 4.103585255 1.597133196 1.407496023
H -0.274545799 2.744858660 1.911974513
H 0.140048983 -1.323929254 -2.907364543
H -0.920873084 -3.994666298 -1.109376572
H -3.992681500 -0.710845199 -0.899521030
H -2.751001366 -1.227138842 2.128483345
H -1.037048041 3.124275660 -1.314642440
H -3.397364952 3.426295715 1.019944451

