9

N -3.463604766 -0.782357236 0.326845708
C -0.997438966 -0.371293578 -0.369363204
C -0.330794064 2.423052115 -0.432771036
O 1.681780227 3.233306943 -1.031707033
H -1.895556799 3.711539347 0.128694166
N 0.706748027 -1.977628304 -0.855849119
H 0.051784996 -3.783405991 -0.748253859
H -4.198714729 -2.521780667 0.139736082
H -4.703145050 0.652380664 0.240742567

