13

C 1.251127668 1.164008573 2.048382144
O 1.124820094 -1.522758319 1.968109451
C 0.555660399 -2.221198411 -0.496481943
C -1.952874120 -0.996673041 -1.471549708
O -2.874017113 0.701802387 0.376423391
C -0.518995290 2.060384381 -0.014811484
C -0.004089292 0.690427653 -2.568284106
H 3.192637448 1.816727989 1.731614970
H 0.594580801 1.768096888 3.904115214
H 0.719151377 -4.231338791 -0.864337353
H -3.329182727 -2.194490987 -2.409588837
H -0.751239758 4.102901080 -0.142836952
H 2.060282449 -1.333886145 -1.831124697

