19

C 3.845144496 -0.344754774 2.055765890
C 2.583038199 -0.718473684 -0.516879874
C 0.716655691 1.415585922 -0.847282556
C -1.747413023 0.341635044 -3.064873178
C -1.932959430 0.911219777 -0.231443565
C -2.824019930 -1.220145684 1.445340567
O -3.374985266 3.082559125 0.318870667
H 5.272015768 -1.797308086 2.377035394
H 2.470787882 -0.458243808 3.590327174
H 4.754559830 1.502031557 2.155980523
H 1.763783626 -2.624279469 -0.602387543
H 4.028746072 -0.610606605 -1.986804984
H 0.222620225 1.320348676 -3.536355537
H -1.733025216 -1.640826725 -3.588635831
H -2.959533815 1.568176828 -4.174607304
H -4.856602886 -1.476181521 1.220329082
H -2.464871338 -0.744242065 3.417654885
H -1.892089170 -3.002782522 1.006206312
H -2.220415460 4.478303489 0.153620372

