13

C -4.089555021 0.401556786 0.270299868
O -2.242657120 -1.438904160 -0.301116614
C 0.181152964 -0.710705057 -0.229780832
N 0.977772662 1.635886320 0.379455702
N 3.518828781 1.847564558 0.303986466
C 4.300702682 -0.419132921 -0.366426135
C 2.294973961 -2.127738339 -0.734626590
H -5.910695709 -0.536383397 0.115514271
H -3.868711951 1.117152662 2.199633329
H -4.026619507 1.973657554 -1.073863629
H -0.059937162 3.149007356 0.850009223
H 6.299648097 -0.771084188 -0.571503220
H 2.350034439 -4.085221804 -1.281629152

