13

C -4.271935022 0.244702337 0.120413292
O -2.275564773 -1.517505768 -0.235275570
C 0.060044460 -0.575830069 -0.261714105
N 0.551560260 1.885544935 0.046687706
N 3.291152707 2.122407592 -0.029862888
C 4.175910308 -0.221196846 -0.376013774
C 2.255026531 -1.963321338 -0.655032422
H -6.009333271 -0.849213932 0.038172146
H -4.116673460 1.177185746 1.954673857
H -4.257584423 1.676896476 -1.363903538
H 1.895843603 2.542729339 1.805444982
H 6.193765136 -0.527152066 -0.444283305
H 2.390328238 -3.953211338 -1.064065626

