15

C 3.959397923 -0.028370628 -0.616443799
C 1.155106961 0.289401144 -0.472990248
C -0.360691364 -1.853284022 0.623851941
C -3.120542639 -1.210434476 0.600263151
C -3.977190470 0.971730848 -0.272884276
O -2.503380971 2.849045837 -1.231115639
C 0.039640634 2.382608310 -1.281367557
H 4.876987154 1.623852336 -1.437969369
H 4.452884556 -1.676529132 -1.763689669
H 4.759386701 -0.340871368 1.264719637
H -0.001628509 -3.593335088 -0.448536606
H -4.481870971 -2.560979124 1.312481236
H 0.283233909 -2.260162466 2.554459531
H -5.953903125 1.489927804 -0.316436284
H 1.052226473 3.968057877 -2.083225935

