15

C 3.973446601 -0.194981620 -1.059323112
C 1.263863137 0.156017414 -0.298322767
C -0.212554599 -1.814331211 0.679050501
C -2.958895541 -1.388883695 0.365989665
C -3.550548628 1.093507880 -0.250092667
O -2.047459845 2.924484592 0.869338136
C -0.051971815 2.355542254 -0.761002367
H 4.459257166 1.129166558 -2.564000248
H 4.349428022 -2.102688413 -1.744044511
H 5.248485654 0.182421159 0.519670206
H 0.485535988 -3.674376126 1.148509077
H -4.201897765 -2.964375313 -0.026593662
H -2.019590050 -1.319817720 2.559060863
H -5.280982329 1.730430867 -1.131860117
H 0.572577605 3.896005435 -1.957405456

