15

O 4.726063100 0.259590771 2.567756646
C 3.645755619 0.096366546 0.151226391
C 0.827382172 -0.118262727 0.211020387
O -0.421458852 1.590116416 1.496672124
C -2.772127105 1.947774278 0.261292752
C -3.519388178 -0.550230384 -0.807377002
C -0.850004367 -1.150435180 -1.672680308
H 3.923015707 1.623475128 3.456731492
H 4.103027975 1.761128712 -1.005871037
H 4.455209089 -1.558477846 -0.772060099
H 0.055247655 -2.405520823 0.414716687
H -4.031714964 3.098175632 1.393708430
H -4.832440187 -0.360148578 -2.381574478
H -4.312951924 -2.007070180 0.497512052
H -0.229161720 -2.233840357 -3.291469274

