14

C -1.711610820 -1.544219296 2.121114018
C -0.698596108 0.876071513 1.268532764
C 1.466003399 1.240929497 -0.237436566
C 3.362334513 -0.798834136 -0.713467138
O 3.225097802 -2.915093239 0.088909762
C -3.501701475 1.507416067 -2.671965555
N -2.154957747 1.544989794 -4.416567573
H -1.469467910 -3.021601171 0.713976173
H -3.663296680 -1.377700012 2.730448875
H -0.508397800 -2.109476952 3.723178076
H -1.682574441 2.571604071 1.870154515
H 0.066133252 1.323749182 -2.083698877
H 2.227321785 3.151554027 -0.261373387
H 4.965734551 -0.195470625 -1.908103088

