14

C -3.602308718 -0.821096602 -0.092189514
C -1.318362385 0.895492607 -0.522566910
C 0.163341936 -0.018853457 -2.777033439
O 2.402287256 -0.418789652 -2.789706680
H -0.963966474 -0.332078756 -4.519259656
C 0.338627262 1.133002721 1.822631833
O 2.315209432 2.884013254 1.522194538
H 3.450213260 2.186878074 0.285099900
H -0.811104373 1.801052559 3.400917883
H 1.066773187 -0.741569085 2.335834243
H -1.997459770 2.787245009 -1.042287515
H -4.752106380 -0.990928557 -1.796500965
H -3.009872963 -2.718252185 0.466343230
H -4.803940622 -0.064986226 1.401552551

