14

O 3.947007273 1.822319953 1.151191940
C 2.706648568 -0.176363736 -0.179245568
C -0.052167628 0.096282226 -0.033045112
C -2.014259643 1.228453941 -1.774709323
O -3.783397563 -0.771757346 -0.959405298
C -2.024092247 -1.659059256 0.645073886
H 5.725235569 1.714484224 0.812327234
H 3.256984191 -2.010116192 0.623885767
H 3.333008062 -0.161296912 -2.162795216
H -1.478253039 0.130317441 2.411980379
H -2.826555149 3.073035132 -1.298007918
H -1.675184894 1.110175850 -3.810300913
H -3.079694375 -0.756209360 3.326157956
H -2.026129088 -3.616447875 1.266426267

