14

C -2.360536346 -4.322766028 -1.264030869
C -2.299804612 -1.866396851 -1.707972001
C 1.635442177 4.167205096 0.682484076
N 2.199530925 1.693839949 1.697722788
C 1.019621403 -0.488729058 1.079204354
O 1.513585739 -2.523605103 1.969067277
O -0.785967104 -0.018035282 -0.685468974
H -3.732375335 -5.415493923 -2.314330218
H -0.290091971 4.753347438 1.132696170
H -1.135476959 -5.263526003 0.060685361
H -3.556977570 -0.973027692 -3.052351304
H 2.941598084 5.519631098 1.517201881
H 1.871051379 4.213837943 -1.365048636
H 3.550439855 1.494572770 3.011433254

