16

C -3.662017506 1.747297013 0.312079048
C -2.850435901 -0.985099867 0.728380989
C -0.031049977 -1.285086765 1.272670282
C 1.623575963 -0.663756985 -0.893467330
C 5.462247788 0.291650144 -1.560213919
O 3.937483336 -1.634626156 -0.900816022
H -2.743690923 2.583274283 -1.335763135
H -3.191452740 2.917015677 1.947775034
H -5.698315437 1.878323120 0.012979149
H -3.347437217 -2.126429137 -0.922148309
H -3.907206919 -1.772150615 2.319284702
H 0.415760969 -3.233280316 1.823707919
H 0.474498551 -0.125677842 2.926493768
H 1.152451159 0.585833731 -2.437394588
H 7.014341856 -0.161762181 -2.803057916
H 5.290178549 2.035201871 -0.530178803

