15

C 2.874120897 -0.652022447 -1.591013866
C 1.237174195 0.776569685 0.267270561
C -0.385940694 3.003922991 -0.720137814
N -2.611860888 1.954079519 0.613105012
C -1.287501551 -0.370471660 1.000786767
C -2.009799152 -2.629633762 1.659035748
N -2.659059406 -4.843006477 1.973223390
H 1.789573607 -1.198948437 -3.258535864
H 4.472721635 0.503123348 -2.200487032
H 3.626426895 -2.373044330 -0.737453601
H 2.326209830 1.326768586 1.932474564
H -0.559225575 2.969961456 -2.780826573
H 0.134941676 4.900162907 -0.104581431
H -4.239070681 1.848744296 -0.381225487
H -2.744137484 -5.357948342 3.829434485

