11

C -4.128929260 -1.115907786 3.277152538
H -2.709604969 -0.991983931 4.743817304
H -5.467806645 -2.649046446 3.459471104
C -4.957228403 1.269952440 2.078174848
H -6.881751453 1.425719503 1.408583296
H -4.098765149 3.004720285 2.737211373
C -3.228811851 -0.493774797 0.634619846
C -0.560064897 0.278084368 0.331369296
O 0.611884078 1.467603204 1.877761097
H 0.353320468 -0.314260642 -1.458351123
H -4.030747689 -1.550653700 -0.921687442

