17

C -3.517467914 -0.130024685 2.533140775
C -3.384272212 1.114906420 0.013674928
C -1.757518731 -1.148758029 0.525437631
C 0.987980357 -0.776194348 1.002563657
C 2.644833207 -0.389159710 -2.256585120
C 4.199541806 0.934490450 -0.594787764
O 1.720124206 1.202722466 2.274350643
H -2.628050757 0.837459892 4.097317733
H -5.151441717 -1.267669480 2.995906772
H -4.943614835 0.878359594 -1.287418517
H -2.416884124 2.916062064 -0.070087599
H -2.269512472 -2.917766144 -0.370152410
H 1.960264253 -2.581045937 1.359908657
H 3.122378564 -2.300235658 -2.799141062
H 1.452473754 0.666870781 -3.539943730
H 5.710369282 -0.013929927 0.408809404
H 4.270797350 2.973914140 -0.565148260

