15

C -0.702194789 3.566240668 0.606483071
C -0.533430171 0.912657102 1.617865532
C -1.927059781 -3.387411538 -0.270308239
N -0.588181999 -0.992401598 -0.530489814
C 1.777785231 -0.530042326 0.862539978
C 3.795346055 0.481884981 -0.707441746
N 5.405687756 1.355808990 -1.871520295
H 0.186757759 4.838194592 1.964982691
H -2.674657016 4.146844431 0.446043641
H 0.225529232 3.896220203 -1.234149537
H -0.999133427 -4.863012554 -1.372046235
H -1.950899432 -3.871038827 1.726082683
H -3.865581808 -3.131237903 -0.913710719
H -0.508209602 -0.330698784 -2.335865726
H 2.409056690 -2.090397408 2.037584608

