15

C -0.984901748 2.751275697 0.334522720
C -0.267212527 0.197091537 1.311113528
C -2.413001833 -2.535020920 0.118780928
N 0.597712323 -1.817424598 -1.174546536
C 2.276040739 -0.743881958 0.710358217
C 4.116061926 0.984882265 -0.352623273
N 5.595803445 2.369852526 -1.127921002
H -0.470930824 4.114233729 1.799864999
H -3.027480109 2.891600863 0.072359673
H -0.051187749 3.360159080 -1.417034718
H -2.941652282 -3.388849658 -1.694665192
H -2.059253890 -4.003063220 1.497647355
H -4.001966896 -1.360919981 0.710602748
H 0.505938473 -0.697208331 -2.734518948
H 3.157989981 -2.123961004 1.952416542

