9

C -1.101344253 -2.597328629 1.239570538
C 0.933057905 -1.329930400 -0.281528053
O 1.711253983 -2.085853429 -2.267533607
C 2.044488723 1.118770721 0.878943784
O 3.670817223 2.304372949 -0.133919977
H 1.230947718 1.709711456 2.721426774
H -1.805694275 -4.251349101 0.246082517
H -2.649541932 -1.277082414 1.597882472
H -0.353309546 -3.158532823 3.082654064

