17

O 5.612964634 -0.137515899 -3.222589267
C 4.760562280 -0.468195313 -0.676570519
C 1.989085808 -0.452931296 -0.353150620
C -3.791667344 -1.516666900 1.923158800
C -3.415709885 0.530233907 -0.104640296
C -1.374428424 2.342383675 0.482123880
O 0.974095066 1.710969145 0.308315620
H 4.825731073 1.359197175 -3.875942232
H 5.585623774 0.981473199 0.554371511
H 5.533176296 -2.292804329 -0.105990845
H 0.756363392 -1.973791744 -0.934485707
H -4.505934365 -0.679977374 3.665405822
H -5.146631362 -2.934906715 1.286974677
H -5.170173438 1.584825712 -0.353810399
H -3.002864933 -0.379184488 -1.930532530
H -2.026357991 -2.483769015 2.370795877
H -1.645334894 4.259429060 1.122479989

