12

C 1.453092734 -0.976275318 1.834101431
H 1.455923959 -2.184029766 0.187374528
H 2.537211264 -1.661556926 3.428476496
C 1.451531593 1.836037853 1.544644749
H 2.715112972 3.070769237 2.565603624
C -0.116513691 2.673893907 -0.791916529
H 0.097384617 4.392659117 -1.875489835
O -1.078420042 0.504335928 -2.050470783
C -2.333599623 1.377554296 0.158349808
H -4.327586322 1.801621102 0.020652892
C -0.865504297 0.479536297 2.537201607
H -1.635530201 0.525431395 4.426400593

