15

C 2.731443778 -1.021751445 0.579643385
C 0.921333137 0.944157609 1.534619638
C 0.054212161 2.985217140 -0.360426046
O -0.306786832 1.813241897 -2.711076706
C -2.294086149 1.504502657 -0.941923404
C -1.539865915 -0.340524377 1.024804487
O -1.158775562 -3.926653826 -0.824094370
H 3.774312421 -0.510402781 -1.109210899
H 0.672137731 -3.239544664 -0.484240071
H 3.842156707 -1.937253738 2.041113067
H 1.157789938 1.678696912 3.450988709
H 0.347620261 5.010011552 -0.340464869
H -4.177313619 2.014512507 -1.546714622
H -2.780462366 -1.352230680 2.288694005
H -1.430288312 -3.713709830 -2.614052214

