12

O 4.724273435 1.377988989 -1.287011923
C 2.475255364 1.772256535 -0.657855465
C 1.804883166 -0.953608545 -0.520006407
C -1.944938933 -1.514004767 0.517045471
C -2.613196698 0.946636967 0.750080014
O 1.129811219 3.592269434 -0.255563197
H 1.695743886 -1.955955091 -2.300409154
H 2.622771978 -2.016778402 1.024659582
H -2.488923130 -2.552508842 -1.161512018
H -1.547776932 -2.618732650 2.194218281
H -2.454058628 1.947133245 2.524313467
H -3.387234017 2.007228180 -0.815191662

