12

O -0.129637725 2.031933080 -3.753206712
C 0.374873097 2.029109772 -1.544568536
C -0.050583471 -0.155284484 0.205285371
H -0.886097172 -1.727701271 -0.820280260
C -1.318293939 0.552781779 2.729334465
H -2.876268174 -0.687265461 3.275827311
H -1.915418085 2.523650211 2.919304683
O 0.936354325 0.040492163 4.132479999
C 2.226048412 -0.792205411 1.906166666
H 3.947693923 0.299151715 1.557402649
H 2.696812109 -2.801423095 1.982202046
H 1.221734717 3.726389231 -0.635651598

