12

O 0.678671195 -1.867714311 -1.985358021
C 2.406363981 -0.365222247 -1.056293938
C 1.709556877 1.642849885 0.399182477
C -1.087646120 2.116424285 0.355178031
N -1.401068932 -0.173909624 1.719023309
C -1.353157081 -2.324096531 0.141383413
O -3.700014871 -2.155778077 -0.394352753
H 4.362211661 -0.819974937 -1.500233161
H 3.018729429 2.757343797 1.493913690
H -1.873072516 2.067019077 -1.550664377
H -1.720844079 3.742447009 1.433184979
H -0.597312551 -4.047387143 1.005660673

