15

C -2.391041477 -2.399703660 1.528635272
N -0.019773244 -1.002211205 1.499031503
C 1.374575275 -1.220310752 -0.922164655
C 3.830178508 0.209451745 -0.557891636
C 2.644755842 2.356391515 0.025670229
C 0.038761779 1.147952269 -0.313642059
N -2.207851899 2.119682607 -1.371476596
H -3.346703795 -2.496818046 -0.304816906
H -1.998584252 -4.310706249 2.196663530
H -3.675755531 -1.500606722 2.867477735
H 0.862421455 -2.644833869 -2.294538323
H 5.773439799 -0.410960233 -0.424959476
H 3.262840301 4.145814417 0.802177439
H -2.874087392 3.604574764 -0.372082520
H -1.958853062 2.662387232 -3.183748346

