11

N 3.822387053 0.163682842 1.093823218
C 2.471049193 0.248440517 -1.039260759
N 0.692254414 -1.248534454 -2.276877283
N -1.755724492 -0.812662339 -1.340700970
C -2.199077693 -0.242314630 1.034777554
O -4.705590696 -0.143680526 1.371332467
N 2.055326774 1.326407875 -3.089127642
H 2.883968543 -0.594757075 2.568264661
H 4.843961526 1.719620708 1.489971438
H -3.125619255 -1.192047932 -2.625036833
H -5.004548165 0.265426226 3.109260369

