11

N 4.579405065 0.032590236 0.643274791
C 2.221566227 0.598480629 -0.202181647
N 0.659683888 -1.231402575 -1.168406627
N -1.767655089 -1.235920494 -0.342707256
C -3.290306941 0.743940729 -0.248695706
O -5.451234824 0.060972561 0.885931443
N 1.085897178 2.627743299 -0.653286617
H 5.132678891 -1.748611336 0.262760824
H 5.912049055 1.376171602 0.451348499
H -2.481578142 -3.010014466 -0.231361248
H -6.599651134 1.451787500 0.714025608

