19

C -2.319845535 1.838837028 -0.877252309
C -2.789445501 0.541589026 1.634326124
C -0.776768692 -1.488942596 2.167190322
C 1.763337367 -0.285122634 1.735517065
C 3.698080245 -1.527807251 0.011990218
C 2.221790160 0.669915338 -0.821940233
O 0.662924466 -0.520007503 -4.106494337
H -1.738225704 3.807315977 -0.688199515
H -0.748313631 0.432198015 -2.959100369
H -3.977472058 1.778412676 -2.112989613
H -4.645024331 -0.366847525 1.657588898
H -2.782522470 1.887766195 3.207890315
H -1.027538542 -3.050260360 0.835854683
H -0.927722642 -2.263120379 4.075475749
H 2.414926330 0.935271927 3.256604186
H 3.184516595 -3.376285606 -0.693354461
H 5.707488886 -1.254327088 0.311012392
H 2.950683132 2.490124882 -1.365127948
H 1.179734212 0.595468311 -5.453122282

