14

C -4.568037172 0.953066533 -0.276049718
C -2.218599112 -0.502261387 0.175547374
O -1.018499680 -1.496330140 -1.529780579
C 2.526402616 -1.717858028 -0.679440861
C 3.075702140 0.832245080 0.326378775
N 5.492570390 0.431157191 0.044194118
O 1.628884053 2.343017338 1.328859644
H -4.213434430 2.888806091 0.353679044
H -6.096332539 0.202394033 0.890433885
H -5.090575887 0.938791920 -2.263691246
H -1.593065919 -0.699711746 2.140096014
H 3.107202741 -2.217676018 -2.565884626
H 2.304851031 -3.233466322 0.680528096
H 6.632871933 1.244881859 1.357432775

