15

C 4.329658860 0.519847783 0.036544620
N 1.656286839 -0.074324969 0.038526338
C 0.692755361 -2.638769284 -0.029124667
C -1.852514488 -2.733620761 -0.008224428
C -2.567313958 0.024376409 0.316418350
N -4.702465542 1.149226058 -0.984841881
C -0.180674334 1.514005315 0.140203959
H 5.209693092 -0.396872571 -1.583759906
H 4.610783722 2.552764182 -0.076670082
H 5.186488899 -0.210088998 1.760740109
H 2.124171444 -4.094812995 -0.168967972
H -2.944352871 0.107431913 2.375459495
H -6.286627563 0.252095021 -0.396020663
H -4.558148292 0.726839955 -2.846970200
H 0.108140938 3.537181366 0.197227314

