15

C 4.332667834 0.494934069 0.129049227
N 1.671532280 -0.135757188 -0.073089107
C 0.733850933 -2.557310504 0.056577210
C -1.885927095 -2.654198596 -0.104426606
C -2.485703830 0.116863271 -0.102953508
N -4.898497699 1.222445027 -0.578242172
C -0.203220392 1.533812782 -0.173850041
H 5.424564061 -0.848136429 -0.983414118
H 4.652287493 2.392187010 -0.594785761
H 4.943585147 0.399653775 2.093774348
H 2.073238638 -4.095613237 0.186973528
H -2.440488769 -0.816587319 1.940481844
H -6.222353688 -0.142705012 -0.357118497
H -4.996932059 1.781953740 -2.402646210
H 0.127286812 3.543733274 -0.265791605

