19

C 2.817960107 -3.140577118 1.987911022
C 2.211979798 3.290978474 -2.718886056
C 0.325161187 3.143261134 -1.081976223
C -2.224260958 2.053938638 -1.658173504
C -3.065307021 -0.050912434 0.144544528
C -1.191358862 -2.207866355 0.366394501
O 0.736405899 -1.507632989 2.061175987
H 4.170229565 -2.491950603 3.397981740
H 2.274590090 -5.094737102 2.431488041
H 3.727657162 -3.116970470 0.122933072
H 4.014903167 4.112333912 -2.204036863
H 2.021691086 2.589283366 -4.637218099
H 0.600078411 3.843170734 0.829663071
H -3.632625820 3.569459268 -1.585764584
H -2.229478983 1.338657080 -3.599047390
H -4.876129861 -0.797403519 -0.512058899
H -3.385553881 0.707148687 2.040687331
H -2.127934776 -3.932189477 1.051079258
H -0.375588944 -2.643627411 -1.498003284

