17

C -4.592085090 -0.460325416 0.237270214
C -2.440566096 -0.923519588 1.437487602
C -0.484356402 -2.751724394 0.536986087
C 2.184499552 -1.884047233 0.021767434
C 3.313632567 0.339015506 -0.299490183
C 2.506199289 3.060960670 -0.290575967
O 0.093569997 3.699173735 0.594102719
H -5.984934431 0.832859618 0.998658047
H -5.043070743 -1.373386977 -1.543492224
H -1.165062662 2.740540031 -0.298771596
H -2.049958025 0.029895883 3.211509160
H -1.173263809 -3.687691627 -1.177407544
H -0.337966274 -4.256198894 1.954465855
H 3.439766174 -3.497114599 -0.195791992
H 5.320633111 0.213474329 -0.739695913
H 3.831366994 4.097781415 0.909577813
H 2.804780061 3.784680536 -2.219039985

