11

C -2.812579225 0.425839049 -0.185355450
C -0.110264121 -0.248684934 -0.892625722
C 1.689355327 0.123973933 1.239689232
O 1.429124714 0.721332783 3.334149759
C 4.962863906 0.341281968 -0.053156352
N 4.631097257 -1.780399402 0.539094511
H -3.478733706 -0.715854353 1.393869624
H -4.052851003 0.088386554 -1.794733032
H -2.973567148 2.408630972 0.348331346
H 0.597505360 0.862085764 -2.480716087
H 0.092495782 -2.225770339 -1.458079608

