14

C 2.677133011 -2.083572870 1.253416202
C -3.582355005 1.221515169 -1.800588972
C -2.577459671 1.052207178 0.481642264
O 0.749942537 -1.053841621 2.858924097
C 0.181799212 0.902273870 1.047651578
C 2.006274265 -0.254837807 -0.888287931
H 2.367614618 -4.090305545 0.880885950
H 4.561122607 -1.824160300 2.064922955
H -2.428709955 1.221064450 -3.495336915
H -5.605023022 1.384251731 -2.065047885
H -3.780042524 1.059565999 2.147165612
H 0.827406814 2.736203355 1.773328576
H 1.074611734 -1.141357333 -2.493732105
H 3.516339445 0.971804944 -1.551275892

