18

C 3.057337668 -0.604383529 1.814310575
C 1.952499519 -0.481052575 -0.773089584
C -0.636964864 2.722367310 -0.265380532
C -2.597847435 0.945464411 0.896889114
C -2.607273313 -0.896953233 -1.246585636
C -0.083155130 -2.216150934 -1.567535889
H 1.615539601 -0.915796127 3.260104790
H 4.094703202 1.121981650 2.270177372
H 4.403995282 -2.168126511 1.959994287
H 3.274456976 0.136548907 -2.220673369
H -1.633586050 4.376602605 -1.019059209
H 0.942159185 3.488752372 0.823976847
H -2.104299254 0.242321282 2.787942034
H -4.439090198 1.863014298 1.072067217
H -4.305454360 -2.023501330 -1.584710250
H -0.832783708 1.606204750 -2.285960459
H -0.010397462 -3.822632264 -0.242000916
H 0.136141331 -2.981467659 -3.471761240

