18

C 4.567682546 -0.137120928 2.071114472
O 3.458962579 1.703729510 0.601205879
C 0.536757374 0.029274447 -1.897489214
C -2.167905300 0.341325318 -1.640008077
C -1.441157205 1.963170500 0.704462952
C -3.721477341 -1.991879201 -1.067153249
H 3.163678302 -1.314644198 3.096700531
H 5.832565304 0.664372129 3.511668835
H 5.729598096 -1.446022304 0.935851431
H 1.623361101 1.159200089 -3.200589529
H 1.414606307 -1.695467646 -1.234959153
H -3.005777190 1.499403685 -3.118219730
H -1.992471781 3.923760107 0.454796456
H -2.190743150 1.103163228 2.413312466
H 0.897177657 2.046001524 1.023069850
H -3.914809892 -3.196414651 -2.731509540
H -2.839421387 -3.103474991 0.432596577
H -5.611078139 -1.458548486 -0.436615646

