14

C 1.412053608 1.247463263 1.770856115
O 0.784611792 3.571731210 1.105790741
C -1.875607716 3.042350212 0.681655639
H -2.382823266 3.400033359 -1.284202808
H -3.055595473 4.166341661 1.943953120
C -1.318455624 0.294503385 1.444983087
C -2.483201682 -0.564616812 3.925197943
H -2.213966788 0.835614102 5.417188989
H -1.611789590 -2.325329407 4.551144570
H -4.511021281 -0.888023710 3.702341351
C -1.576355978 -1.666278728 -0.635047359
H -0.682137217 -3.432383656 -0.058068959
H -0.677039567 -1.043557978 -2.384957806
H -3.566410554 -2.048681779 -1.034900235

