19

C 3.484064434 -0.227667457 -2.813362101
C 2.031282485 0.632189186 0.992173584
O 1.566550227 3.161960711 0.841400160
C -1.084555548 2.797854895 0.316810997
C -0.792817361 -0.048295863 0.855484497
C -1.675365061 -0.764008449 3.509585696
C -1.838212871 -1.884601773 -1.079890060
H 5.456600625 0.296103397 -3.095740002
H 3.120104846 -2.171340954 -3.375124917
H 2.247941626 1.106478790 -3.761092785
H 3.745683826 -0.243111131 -0.150042270
H -1.510284652 3.268734262 -1.650734899
H -2.271545307 3.906923574 1.588447145
H -0.925223573 0.533567875 4.925707790
H -1.028187644 -2.663578931 3.986372630
H -3.738101527 -0.734057612 3.620229690
H -1.061772405 -3.774633807 -0.789989575
H -1.424794123 -1.315635699 -3.014065094
H -3.890326147 -2.021029285 -0.881328146

