12

O 3.128696126 2.776713150 1.024183598
C 2.374001080 0.405067198 0.174211603
C -0.318800066 -0.180341950 0.908825191
O -1.581520090 1.378322394 2.004228996
C -1.418134728 -2.731497975 0.263914426
O -3.952666965 -2.907191973 0.943953669
H -4.376604363 -1.349424777 1.796350467
H -1.180665091 -3.056794825 -1.770437352
H -0.282955174 -4.172560882 1.237584171
H 2.506937360 0.276778699 -1.894503296
H 3.605192269 -1.075862354 0.943747273
H 1.669066055 3.539859619 1.811625256

