12

N 3.858955049 -0.037812777 0.077103358
C 1.386016357 -0.124711776 -0.194824508
C -0.216424380 2.282519381 -0.182966798
N -2.004353283 1.449865724 1.612064583
C -2.692307115 -0.492592755 -0.343907705
O -4.782994974 -1.479065734 -0.516527043
N -0.162974762 -2.007286724 -0.345829235
H 4.928720127 -1.589437494 0.296014505
H 4.684617986 1.672384452 0.141772073
H -2.012371788 0.821542597 -2.220071870
H -3.447781296 2.698062899 1.781529081
H 0.093045881 -3.877259541 -0.094866273

