14

C -3.465974086 1.224504999 -1.403217816
C -1.067996161 0.554601736 -0.334463534
C 0.870987413 2.076476022 0.706087663
N 3.066871412 0.666187003 1.063443698
C 2.745496990 -1.838357850 0.450286322
O 4.255218599 -3.503913853 0.810800864
C 0.101036116 -2.053135108 -0.664626429
H -4.838179209 -0.264280958 -1.660030802
H -4.115219770 3.161261210 -1.358398482
H -2.064126964 0.832619548 1.613186041
H 0.801450859 4.069921088 1.118729317
H 4.527248019 1.217618402 2.145827459
H -0.928705148 -3.584724419 0.246214987
H 0.231330200 -2.493572801 -2.672714170

