14

C -3.332334582 -0.046392436 0.771289752
N -0.701318788 -0.316477404 0.124592743
C 0.676607973 -2.708637089 -0.225521068
C 3.371863061 -2.075552305 -0.822161293
C 3.401551792 0.527375828 -0.768913365
C 0.971715655 1.494326293 -0.199910442
O 0.233035092 3.881135162 0.028593484
H -3.897310064 1.922604884 0.588571056
H -3.681708244 -0.661686223 2.711061721
H -4.485601744 -1.189307130 -0.499680777
H 0.550357770 -3.845042791 1.497461953
H -0.191734542 -3.789545409 -1.759466887
H 5.008074697 1.755896684 -1.106482305
H 1.654247787 4.969811314 -0.275524034

