16

C -0.561605401 4.353962193 -0.761099291
C -0.373866346 1.590445909 -1.374990447
C -2.739963948 0.327970170 -2.300226663
H -4.254587978 0.496078033 -0.902824990
H -3.424128501 1.225521539 -4.032836838
H -2.423159640 -1.670027302 -2.683854427
C 1.760761709 0.336901470 -1.114586735
C 4.428561646 0.362673781 -0.407512031
H 5.780157510 1.247569390 -1.668650278
H 4.928513712 0.468515301 1.577393154
C 3.124154453 -2.053430018 -1.329594426
H 2.771507540 -3.523437936 0.054186385
H 3.627125886 -2.745744923 -3.191902458
H 1.234653433 5.096612447 -0.081960880
H -1.131188584 5.439392911 -2.426348572
H -1.996710664 4.688353351 0.689393161

