14

C 2.322516927 0.872088424 -1.335325757
C 1.219372881 -0.226247271 1.087756782
O 2.206373717 1.081023310 3.224983720
C -1.614483225 -0.354651213 1.263868731
C -3.415539186 0.395220100 -0.325748986
O -3.226501793 1.463822032 -2.639418348
H 1.761163275 2.846122620 -1.596132794
H 1.783121968 -0.241034359 -2.992547312
H 4.377948506 0.844199941 -1.214398838
H 1.954433257 -2.148254075 1.296986673
H -2.298049869 -1.175807739 3.012576557
H 1.247160113 2.607846392 3.430968932
H -5.386240471 0.153846213 0.178156538
H -1.483771549 1.649321894 -3.108066667

