15

C 3.392462096 -1.068132543 0.740468943
C 0.964388695 0.334222953 1.265253012
C 0.041063087 2.253757220 -0.477959906
O -2.935988149 1.346942376 -3.121660771
C -2.750183587 1.704542791 -0.692379098
C -1.689771614 -0.888907157 0.613528518
O -1.653438644 -2.773711905 -1.138998879
H 5.009770820 0.210989755 0.791220656
H 3.311239739 -1.960471953 -1.113751930
H 3.701080885 -2.546446072 2.141740001
H 0.801153057 0.985154404 3.218792013
H 0.997254907 2.901900702 -2.181925272
H -4.185557209 2.743071546 0.376946353
H -2.746624533 -1.344566972 2.321538749
H -2.232593044 -1.915534114 -2.691098125

