10

O -0.009318466 5.726694985 0.385453315
C -0.011344102 3.515291025 -0.011170757
N 1.756511488 2.251862241 -1.671494278
C 1.033895940 -0.027738704 -1.902046270
H 2.036188384 -1.339796793 -3.122499582
C -1.207882930 -0.755878431 -0.309021716
H -2.504494851 -2.263803118 -0.785753603
O -0.622931625 -0.415120427 2.295221232
C -1.875155146 1.570364809 0.988695921
H -3.743261367 2.102497645 1.626513070

