14

C -2.988862724 -0.497089207 -1.045756806
C -0.449408847 0.672861988 -0.349828084
O -0.678524722 2.370320044 1.699323972
C 1.271051996 -1.487802826 0.542595531
C 4.293524576 0.004471413 -0.198361150
O 4.217411680 -1.247054042 1.893748255
H -4.326072463 0.994610065 -1.540089923
H -2.815264885 -1.757440420 -2.668526423
H -3.764619543 -1.547398571 0.551726650
H 0.349313663 1.617109887 -2.002620480
H -1.450240116 3.900676838 1.114422197
H 1.355391285 -3.087825999 -0.721627429
H 0.582377082 -1.981775761 2.427751240
H 4.472913159 2.081608311 0.233658796

