14

N 3.120148498 -3.103608349 0.263551145
C 1.717951040 -1.313823754 -0.423295402
O 2.417676524 0.587602836 -1.988236376
C 0.682463195 2.693476818 -1.866894435
C -1.994592753 1.993690031 -1.222793965
C -2.565983138 -0.570995980 -2.091709615
C -0.997874132 -1.089207052 0.307202761
H 4.893346948 -2.891834358 -0.448761067
H 0.618254931 3.571392004 -3.738633409
H 1.457074727 4.067730725 -0.537966987
H -1.294117048 0.750980280 1.459565424
H -1.630807133 -1.306859603 -3.769889668
H -4.527754825 -1.154192504 -1.956121463
H -1.736140883 -2.525291419 1.569054511

