14

C -2.802096442 0.768575142 0.127469095
C -0.552493426 0.952819433 -1.578210442
C 1.998004805 1.567638615 -0.401015020
C 2.442088176 -0.601448954 1.398779586
C 0.638500209 -2.340894684 1.241908639
C -1.373966046 -1.592815304 -0.573763106
H -2.636920111 1.435256384 2.057091249
H -4.638647903 1.051712826 -0.729086877
H -0.882844367 1.447038278 -3.534127097
H 1.996176041 3.393146592 0.570803076
H 3.486566054 1.660670739 -1.834187754
H 4.041878365 -0.676595274 2.672706139
H 0.569915812 -4.070751547 2.333220903
H -2.286161186 -2.994352227 -1.751588392

