14

C -3.269283681 0.451690937 0.341532791
C -0.754270236 1.499614692 -0.871997831
C 1.949183466 1.468445209 -0.281888443
C 2.453987385 -0.453885098 1.549194189
C 0.463161782 -2.065434428 1.501472141
C -1.223549213 -1.232621089 -0.468371681
H -3.756062939 0.525559896 2.332767293
H -4.802954526 0.947813548 -0.920751083
H -1.210431774 2.216419539 -2.732348654
H 3.222695167 3.021265329 -0.681374561
H 2.118792395 -0.500902731 -2.617451170
H 4.185167869 -0.633364387 2.620336329
H 0.193474847 -3.758059340 2.613172830
H 0.472243560 -1.665962123 -2.609373612

