17

C -3.696872994 -0.519062356 -0.135908158
C -2.571732081 1.877606725 -1.181980133
C -0.905545666 -0.192101772 -0.236356796
C 0.989720757 -1.865453178 -1.629067810
C 2.575032091 -2.167806694 0.829089313
C 3.243989130 1.350810438 1.353546005
C 0.883470282 -0.178104438 1.989711817
H -4.561422677 -1.829767023 -1.448993426
H -4.610656033 -0.426951530 1.693326510
H -2.675094601 2.177306612 -3.204056042
H -2.725477043 3.582982923 -0.059417071
H 0.265783857 -3.728437033 -2.145858035
H 1.943634568 -1.070962880 -3.275555021
H 4.651942448 -0.121522845 0.530930347
H 2.953149961 2.792300971 -0.079155242
H 4.240711323 1.977444792 3.031962010
H 0.299536425 -0.141170913 3.957278671

