11

C -2.885749553 -0.186743340 -1.360529205
C -0.444032047 -0.081957573 -0.027569781
O -0.376267828 0.453554169 2.376875580
C 2.075971106 -0.372356398 -0.762124165
C 2.374775036 0.890417124 2.499373958
N 3.901102159 1.563863660 3.949843581
H -4.237962017 1.158905065 -0.590929983
H -3.658911590 -2.092090791 -1.140622003
H -2.604012931 0.137806936 -3.372251550
H 2.727949334 0.077207236 -2.652569652
H 2.928142592 -2.082092799 0.011413322

