14

C 3.806932684 0.778609625 0.794317312
N 2.222516514 -0.736103184 -0.951826382
C -0.504161809 -0.492523912 -0.483900903
N -1.622030545 1.615672789 -1.250968194
N -3.974729687 1.160889088 -0.476754582
C -4.181078294 -1.133661725 0.694007154
C -1.859475445 -2.370285595 0.755713382
H 3.310654076 0.213352215 2.706614723
H 5.800783304 0.430825847 0.418739631
H 3.339419335 2.758271218 0.512068933
H 2.626941942 -0.304974225 -2.782889039
H -5.324412393 2.449775318 -0.825868482
H -6.017462627 -1.704477425 1.392119511
H 2.515929451 -2.626109083 -0.670613157

