8

C -2.062487173 -0.083930239 0.154082183
C 0.915845505 -0.120986049 -1.445452042
O -0.227994248 2.015497092 -1.550530773
C 3.258031156 -0.117330922 0.101610366
N 5.148076304 -0.452886528 1.124660714
H -2.858697803 1.548426941 1.128999185
H -3.321908037 -1.021991573 -1.145598067
H -1.222605068 -1.314583519 1.593969019

