12

C 1.685303414 0.816300931 0.194347920
C 1.215705546 1.573843568 -2.512559295
O 0.806428473 3.694791461 -3.193861102
C 0.071839658 -1.447249908 0.995539848
C -2.699363088 -0.800394747 1.150350256
O -4.353890233 -2.032225364 0.214778694
H 1.280102782 0.000071526 -3.901931087
H 3.684614265 0.304001772 0.343261399
H 1.369262914 2.457453653 1.403783751
H 0.304351825 -3.052760978 -0.279089475
H 0.658603966 -2.057245092 2.883709462
H -3.148843990 0.944450856 2.229599037

