12

C 3.343659919 0.892207941 -0.417608498
C 0.740144288 1.419622887 -0.769124504
O -0.407289478 3.475909208 -0.379378733
C -0.560689829 -0.992208091 0.793995303
C -3.319327900 -1.014316374 0.061537760
O -4.508641322 -2.942190589 0.002614814
H 0.488599650 0.480848201 -2.714595017
H 4.058374861 -0.964959052 -0.898636714
H 4.664589572 2.297339577 0.292752535
H 0.269911510 -2.839655089 0.442981510
H -0.376793342 -0.473872145 2.780280461
H -4.136172014 0.851181553 -0.385047817

