12

C -1.363344273 -1.749571695 -0.633152776
H -2.785197566 -2.974340953 0.200172755
O 0.876609953 -2.745552095 -0.535287488
C 2.917379128 -1.000418610 -0.799206487
H 4.598394980 -2.007965079 -0.174407681
H 3.125468947 -0.520955805 -2.805016806
C 2.256733520 1.370005803 0.693944075
H 3.798943338 2.287691127 1.683759753
C -0.060939057 2.309986891 0.632709427
C -1.851908888 0.797382203 -1.295219061
H -1.053329014 1.369829530 -3.108964891
H -3.837670062 1.290178840 -1.181518945

