14

C -1.614020299 -1.716407701 -0.275865640
C -1.942628384 0.840073686 -1.191568131
C -0.313704760 2.286752065 0.752720189
C 2.068813164 1.494133144 0.891789707
C 2.685523036 -0.849022030 -0.623407779
O 0.667311125 -2.651185673 -0.121447142
H -2.551049879 -0.211479950 2.934184424
H -3.095795201 -3.073449076 0.099230180
H -1.061878816 1.115020144 -3.039427978
H -3.908784633 1.426493402 -1.240302486
H -1.901877498 1.352848262 2.874186603
H 3.338579919 2.031421229 2.402157715
H 4.412380790 -1.806015434 -0.054150764
H 2.732925039 -0.516482351 -2.661109022

