15

C -3.241666978 1.284024814 -0.908364646
N -2.439408223 -0.289047784 0.914877682
C 0.902353957 -2.111688045 0.189570049
N 1.071382097 -4.105766774 1.351353300
C 1.845410554 -0.302476140 -1.427343288
O 0.576400030 0.184750549 -3.450843257
C 3.577403885 1.669818488 -0.366200350
H -4.809171479 0.720138211 -2.121521273
H -1.370553295 0.998950255 -2.738087790
H -3.089794206 3.297288099 -0.509859692
H -3.269559732 -2.001077745 0.624447204
H -0.284280534 -4.340266592 2.699965891
H 4.653061298 0.968121131 1.242034174
H 4.870763757 2.290994671 -1.844485892
H 2.466363050 3.309458427 0.238992756

