11

C -2.420642619 -1.206580720 0.493014334
C -0.497105232 2.456098341 -0.157201252
O -1.023420073 4.523245107 -0.023843865
N 3.266890116 1.164935672 -1.391201557
C 2.934682046 -0.772542868 0.105328119
O 1.231540109 -2.432272693 -0.165891743
H -3.080232059 -1.311863126 -1.435700545
H -3.425961668 0.134443923 1.668887968
H -2.144308044 -2.999379144 1.417834224
H 2.255226615 0.838952511 -3.001969316
H 4.070975574 -0.800328456 1.840776133

