11

C -3.039926166 -0.509444425 -1.351449392
N -2.260584253 0.452716226 1.123684709
C 0.106798061 0.527682361 1.855094626
O 1.783120797 -0.555616708 0.186011298
C 4.309943971 -0.308839150 0.666961564
O 5.254152735 1.052543247 2.168537205
H -4.990386558 0.040091409 -1.689592242
H -2.923363418 -2.567670871 -1.315512149
H -1.827716916 0.172909714 -2.874295545
H -1.289268067 2.475187977 1.959683918
H 5.332667057 -1.574892593 -0.621842368

