16

C -2.212300635 2.795691027 -0.226565142
C -0.473736878 0.583757036 0.359369501
C -1.853002888 -1.934038445 0.080154548
O -0.578835773 -3.996406395 1.166248730
N 1.736715624 0.725535344 -1.329073825
C 4.088745066 -0.030090279 -0.982040041
O 4.256931636 -1.198664166 1.287294154
H -1.196018398 4.583741987 -0.093572643
H -3.788886083 2.851239847 1.097692452
H -2.999030131 2.637778368 -2.132214760
H 0.222970864 0.733448081 2.295879537
H -3.683081848 -1.800585343 1.030385528
H -2.220137556 -2.267166547 -1.939164932
H 1.213394071 -3.716752176 1.049919570
H 1.441696835 1.579594648 -3.003481758
H 5.987993936 -1.689783728 1.487709134

