16

C -2.310304799 2.695620882 -0.488586762
C -0.543303309 0.599859486 0.373905312
C -1.741064356 -2.007956329 0.028997129
O -0.669836215 -3.906085612 1.536307050
N 1.848214738 0.856852451 -1.035594672
C 4.050023765 -0.075545071 -0.354466417
O 4.187917817 -1.523800068 1.672409321
H -1.415659697 4.544042658 -0.303692349
H -4.027210084 2.700121756 0.647436819
H -2.861776903 2.431252525 -2.463538458
H -0.099192197 0.836040972 2.378070057
H -3.734223601 -1.887463159 0.561519249
H -1.666525904 -2.503909603 -1.989350161
H 1.122908031 -3.601142624 1.700535438
H 1.829196099 1.913554588 -2.616327615
H 6.014392219 -1.093369344 0.380663350

