13

N 3.405556537 1.063289288 0.272572509
C 0.922775093 0.711088558 0.130180776
C -0.416655301 -1.726945494 0.822806597
O 0.949187814 -3.838804125 -0.044443429
C -3.121989318 -1.447288761 -0.011340076
C -3.297801141 0.984355334 -0.626592516
N -0.808267120 2.320865930 -0.512944557
H 4.250279535 2.661435377 -0.302776720
H 4.481071428 -0.489131702 0.485804556
H -0.305905615 -4.898674766 -0.824895387
H -0.446084251 -1.703387469 2.911387921
H -4.849275360 2.161034652 -1.245921889
H -0.478299528 4.127870484 -1.020009817

