16

C 2.709669200 2.795448083 0.070645370
C 1.331831503 0.682717080 -1.244253241
N 4.290627909 0.735077176 -0.145454147
C 1.581587761 -2.275840106 -0.022171174
C -0.684299839 -0.782166959 0.094207855
C -2.560878931 -0.104322482 2.036507332
C -3.387572411 -1.085935161 -0.528495964
H 1.993881252 3.442009354 1.911541388
H 2.936877265 4.348074941 -1.288556793
H 1.236521200 0.732001779 -3.285955166
H 2.642398598 -2.708044754 1.656251237
H 1.840849020 -3.551416560 -1.600474515
H -2.866319540 1.879760900 2.430497107
H -2.764580560 -1.347553778 3.648894643
H -4.151388013 -2.980843444 -0.636012744
H -4.226229614 0.257569898 -1.824538888

