16

C 4.665273502 -1.046488905 -1.044260578
O 2.592656017 -0.477650463 0.509310576
C 0.423892933 0.245138107 -0.853794855
C -1.721134775 0.550868998 1.022057108
C -4.175468623 1.251862167 -0.266998705
O -2.110575885 -1.737425424 2.346789893
H 4.232379728 -2.607112479 -2.339577243
H 5.241268960 0.599636102 -2.166647422
H 6.225268685 -1.599356723 0.179118144
H -0.070057495 -1.220176411 -2.243366486
H 0.759773119 2.026313318 -1.869527862
H -1.184840857 2.048048740 2.359536454
H -5.677213376 1.429215874 1.131211072
H -4.721610528 -0.209823680 -1.616744282
H -4.000389560 3.049131816 -1.264367486
H -0.479221827 -2.302181018 2.913928356

