16

C 4.534529455 -1.284663939 -0.532899328
O 3.267454199 1.074130931 -0.521187013
C 0.719045571 0.962383960 -1.219283515
C -0.828804720 0.145189529 1.065297689
C -4.223682944 0.811651317 -0.092919818
O -0.821765547 -2.266332497 1.730231917
H 3.740206285 -2.588671681 0.853726692
H 4.431291223 -2.156524197 -2.410289528
H 6.503646659 -0.889847409 -0.083236162
H 0.403566377 -0.381078032 -2.768852588
H 0.176410942 2.860541400 -1.824662608
H -0.751812912 1.556950664 2.591260530
H -5.798312676 -0.426197737 0.470733537
H -4.156857882 0.926421074 -2.140404739
H -4.517218222 2.629134780 0.808521004
H -2.961959770 -1.155021545 0.871686971

