14

C 2.690441936 1.697249884 -2.318681936
N 2.036641597 0.341926913 -0.406496360
C 2.811282401 -1.923007452 1.003785592
H 2.728251955 -3.669478144 -0.084713512
H 4.473384815 -1.704303438 2.193968270
C 0.550533194 -0.400409722 1.453675204
C -2.056683617 -0.224045079 2.127782918
O -3.055619699 -1.680080211 3.601534100
C -3.492792153 1.910591970 0.871502496
H -5.354170647 2.066541638 1.729606625
H -2.484756605 3.701586424 1.057129367
H -3.711469749 1.515839956 -1.145739948
H 4.457529975 1.290236930 -3.249765172
H 1.473469197 3.224498702 -2.914261212

