17

O 1.556538156 -3.459493214 -1.127293065
C 2.380741166 -1.176215977 -1.633288381
C 3.239227530 0.509851604 0.600014217
C 0.999879358 2.334470844 1.024494893
C -1.117430282 0.810693112 -0.108779193
C -2.348452852 -1.377094884 0.563246213
C -3.813085311 0.607362550 -0.883056659
H 3.412126737 -1.005539504 -3.419999242
H 3.530762534 -0.713222721 2.232960444
H 5.004677574 1.500308769 0.212725355
H 1.267195726 4.110475707 0.008260787
H 0.652256603 2.775949095 3.009065654
H 0.418344319 0.064262045 -2.155796558
H -0.552601272 -3.072115364 -0.479590305
H -2.705585842 -2.078815333 2.448668864
H -4.261589508 0.277127202 -2.857367624
H -5.186380580 1.785675518 0.094415045

