14

C -4.697711369 0.716452395 -0.220925368
C -1.949978077 0.824536660 -0.909910518
O -0.744353596 -1.293406001 -0.188917640
C 1.886030576 -1.452801980 -0.786735504
C 3.468730441 -0.085521105 1.129061508
N 5.482141994 -1.070116056 1.938037143
O -0.919111859 2.552014301 -1.960621317
H -5.633989047 2.422239986 -0.873970724
H -4.892550428 0.540479813 1.823126393
H -5.566884078 -0.945905057 -1.071905986
H 2.774447935 1.777949240 1.702793944
H 2.216732138 -0.649243888 -2.659424690
H 2.363115085 -3.451833719 -0.783889199
H 6.381371269 0.101830954 3.169158697

