12

C -2.213249750 1.625252320 -0.407474577
C -1.220023702 -1.039845346 -0.056031419
N -0.701164983 -2.567964062 -2.039690765
C 1.800498284 -1.383713650 -0.235512183
C 3.103147124 0.928522752 -0.898916960
N 4.188349487 2.739216089 -1.386801481
H -1.505654181 2.452294266 -2.153871192
H -4.270087210 1.517267738 -0.517022246
H -1.724972601 2.838829241 1.187513005
H -1.862545513 -1.892222453 1.735387713
H 2.242333920 -2.887046434 -1.666339275
H 2.381298030 -2.194845764 1.561875139

