17

C -3.166348674 1.017714404 -0.346409135
C -2.049582971 -1.199319919 -1.031997276
C 0.716814051 -1.659703275 -1.507757446
C 2.495895255 0.635731307 -1.730108518
C 2.468764325 1.583729028 0.965733387
C 1.555892550 -0.140772956 2.628550174
C 0.943584776 -2.290860783 1.223763810
H -5.192059245 1.068390094 -0.063728500
H -2.187959735 1.685568334 2.940954860
H -2.263317175 2.825106919 -0.655754694
H -3.191445578 -2.901561232 -1.033308141
H 1.058540331 -3.202791267 -2.821598435
H 1.839774370 2.115970410 -3.013766196
H 4.342662047 0.015866292 -2.423287594
H 2.699910069 3.579747296 1.389785019
H -0.816485538 1.183401226 3.689385313
H 0.677786406 -4.184426397 1.956039581

