10

N 3.681734114 -0.095271846 -0.633717124
C 1.117588131 -0.059956248 -0.233670097
N -0.279996147 -2.119498585 -0.192971178
N -2.627959238 -1.151357178 0.133184363
C -2.523753352 1.360880977 0.278363801
N -0.178696924 2.140812466 0.056787593
H 4.582901947 1.434897373 0.040521473
H 4.524323819 -1.747737792 -0.222686838
H -4.129783794 -2.303918772 0.230616318
H -4.166358555 2.541149566 0.543571688

