13

C -4.133184489 -0.508362462 -0.780901788
C -1.381611178 -1.348852701 -0.526822176
C 0.410909475 0.902870891 -0.141607345
O 2.962324790 0.192113470 -0.036723142
H 3.263027402 -0.728475702 1.498953949
H 0.218217069 2.162304416 -1.763262553
H -0.165789471 1.953459198 1.550579320
C -1.064613703 -3.119855043 1.579911687
N -0.755867263 -4.440482454 3.272701477
H -0.782212199 -2.342026498 -2.237033598
H -4.326162357 0.774221247 -2.382896228
H -4.765641543 0.471117983 0.919379765
H -5.376212129 -2.119813319 -1.090070733

