16

C -4.063004558 -0.467922720 -0.499895034
C -1.271437727 -1.214459914 -0.577728998
C 0.364440562 1.203892452 -0.185354694
C 3.936915190 2.529283730 0.108325375
O 3.258247567 -0.250290370 -0.620220397
C -0.696116013 -3.106967678 1.351146374
N -0.157567556 -4.523442546 2.904579918
H -4.457391836 0.922358994 -1.969766703
H -4.560268432 0.353399818 1.324897738
H -5.270482709 -2.105409921 -0.816251307
H -0.814336069 -2.041549726 -2.411682937
H -0.040378080 2.515386930 -1.697542395
H -0.043377208 2.023670290 1.646905974
H 4.781278573 2.430954439 1.990666601
H 5.376429920 3.080952007 -1.263279949
H 3.711294873 -1.410871320 0.713985357

