14

C -2.208037999 -1.664565975 -0.823752291
C -2.655580269 0.921279526 0.236834764
C -0.245855504 2.446922738 0.351724614
C 2.050544879 1.446486742 0.179140122
C 2.542229715 -1.352679415 0.115381462
O 0.337392137 -2.602961979 1.011945070
H -0.831108957 -3.870203738 0.011952367
H -1.187337676 -1.390353977 -2.615029864
H -3.982386631 1.863173734 -1.047046355
H -3.583274867 0.874109052 2.084232611
H -0.419267942 4.482247952 0.549937911
H 3.709013199 2.650727528 0.179458011
H 4.071874687 -1.836107395 1.417207874
H 3.069261651 -2.029031689 -1.768418009

