16

C 1.600254589 -1.607503673 1.207581953
C 1.179892930 0.532132382 -0.664845940
C -0.423504670 -0.180976747 -2.912617585
C -1.432663736 -2.421328174 -3.380003661
C 0.081502017 2.875682415 0.569551605
C -0.613447392 3.002246029 2.932218013
N -1.056896666 3.180358669 5.191080990
H -0.183840834 -2.256965465 2.019396882
H 2.506346858 -3.216031350 0.291330100
H 2.813685547 -0.988870173 2.754291870
H 3.032780942 1.086763504 -1.418112977
H -0.754144778 1.344674667 -4.250775494
H -1.183999778 -4.020201316 -2.125219561
H -2.849987148 2.714966027 5.701861111
H -2.560969430 -2.735787918 -5.058294943
H -0.189150133 4.557000491 -0.569438638

