16

C 2.629407430 -1.616436880 1.177178301
C 1.867687402 0.477773938 -0.614715833
C -0.537715200 0.191192757 -2.047335765
C -2.617094409 -1.209138899 -1.293689384
C 0.697854542 2.862722371 0.515526168
C -1.177721200 2.473057972 2.171502072
N -2.976387319 1.352118034 2.951289261
H 1.138499538 -2.049502468 2.532399643
H 3.056872493 -3.335902706 0.120513523
H 4.306252902 -1.067655841 2.240696189
H 3.435973796 1.004612782 -1.838009404
H -0.706250633 1.381453197 -3.707645869
H -2.329130364 -2.887864043 -0.147458259
H -3.536278739 0.263229476 0.954764660
H -4.218197674 -1.286348270 -2.569697999
H 1.042999412 4.692208940 -0.317343144

