13

C -4.465177262 0.098640075 -0.321114527
O -2.162810825 -1.297498259 -0.530038660
C -0.181423856 0.104528103 -0.895113282
C 0.971590196 2.202913364 -1.274745239
N 2.401280467 -0.376762389 -1.469674570
C 3.941488138 -0.988965585 0.615810910
N 3.079546674 -2.043495275 2.570579140
H -4.366189685 1.377626048 1.293666840
H -5.951171640 -1.287857878 -0.033459283
H -4.809758069 1.167211186 -2.052206118
H 1.250440734 4.052846505 -2.044787375
H 5.930945901 -0.538018237 0.282878584
H 4.484370001 -2.427705830 3.820390161

