11

C -3.660697003 -1.005229759 -0.827823309
C -1.247896293 -0.503416142 -0.442251698
O 0.710742266 -0.252900724 -2.139583162
C 0.455368287 -0.056436331 1.763143122
O 0.264105799 0.215899963 3.981770070
C 2.637260716 0.066073235 -0.193679467
O 4.039495193 2.212785161 -0.415437335
H -4.908443233 -1.102657253 0.786073949
H -4.415495267 -1.312526382 -2.701975842
H 2.979832441 3.676873210 -0.221369132
H 3.927650411 -1.540483005 -0.191823982

