15

C 3.904034995 1.087869580 1.385129130
C 1.610401473 -0.514238944 1.273140332
C 0.822953901 -2.137396541 -0.605633790
C -1.805569137 -3.104348649 0.267104019
C -1.666311836 -0.450841391 0.838482688
O -0.282950998 0.014594827 3.069771272
C -2.934402121 1.719828294 -0.453218950
H 3.426138867 3.058690391 0.996749461
H 5.262631823 0.432585749 -0.011784786
H 4.724637321 1.005090542 3.276335742
H -1.786329306 -4.354326306 1.896573547
H -3.017306031 -3.710470499 -1.266307876
H -3.148663880 3.280008595 0.870873463
H -1.843296725 2.361073123 -2.079300010
H -4.799651171 1.153079984 -1.114259378

