10

C 3.100007514 0.636120156 1.519361744
C 1.948077844 2.833817612 1.504255557
H 0.476282755 3.249246140 0.142034915
H 2.433766994 4.295676482 2.854019011
C 3.386784848 -1.875817929 0.408718243
H 4.294725421 -2.039654671 -1.419964512
H 1.938041678 -3.277531126 0.770948128
C 5.007456246 -1.014359082 2.642555861
H 6.983687003 -0.611213320 2.285122951
H 4.626665623 -1.850595188 4.473238872

