19

C -4.978760736 -0.213806467 -0.149920572
C -2.510647138 -1.271398515 -0.908704022
C -0.514491279 0.352399076 -1.714850793
C 1.620180107 0.441767248 0.530859728
C 3.521644416 -1.669934177 0.145560180
C 4.314886115 1.054171964 -0.077633218
C 0.449639563 1.129747366 2.824962185
H -6.042342421 0.537888904 -1.764719249
H -4.673802705 1.435789683 1.094306818
H -6.175056073 -1.579662961 0.821603994
H -2.221559802 -3.298528138 -0.910606712
H 0.555594863 -0.330844614 -3.340544119
H -1.129892459 2.286993516 -2.061519615
H 3.412161527 -2.792544273 -1.567007692
H 4.094004230 -2.701936781 1.815128411
H 4.734341915 1.755504774 -1.954075967
H 5.482212083 1.862030298 1.396350532
H -1.520102894 0.721405518 3.149054335
H 1.483031381 2.107800122 4.297160258

