12

C 1.763855228 -1.302447565 -0.020301857
C 0.955475896 -0.674624063 2.639678753
C -0.410354028 1.322826032 1.957143125
O -2.894428480 1.297929665 -4.239621971
C -2.175276271 0.257751292 -2.358259963
C 0.107240616 1.007273649 -0.848115963
H 1.155773468 -3.133468176 -0.758446834
H 3.768065421 -1.052081115 -0.432226436
H 1.367399928 -1.548122412 4.443510702
H -1.530994350 2.696959129 2.976965121
H -3.212817663 -1.398406686 -1.579774190
H 1.101710066 2.544268162 -1.794477730

