9

N 1.330198590 0.595766189 1.534778337
C 1.742774445 -0.450984066 -0.833257803
C 0.034063995 -1.593660541 -2.291099834
H -1.930549991 -1.703263068 -1.731486922
H 0.593690570 -2.458129438 -4.050737628
C 4.340947801 -0.340080140 -1.660026135
N 6.408680249 -0.203319224 -2.300626378
H 2.500711619 2.008179034 2.031718709
H -0.490377277 0.941947820 1.959893073

