12

N 0.673078872 2.037577238 1.522112958
C 0.716030778 -0.488303738 0.438241529
C -1.745475090 -0.915872944 -1.030768802
O -3.821711439 -0.612644995 0.574941312
C 2.922162516 -0.975934431 -1.194508790
N 4.630968094 -1.289501392 -2.492105164
H 1.971910295 2.240194014 2.905544245
H 1.019065540 3.366276331 0.190351659
H 0.765792955 -1.849456930 1.989749272
H -1.806760250 0.402060455 -2.636170193
H -1.796780852 -2.832560320 -1.786353570
H -3.528281437 0.918166693 1.518965544

