10

C 2.575734238 -0.941307864 0.454782396
C 1.929212953 1.418487785 -0.048527071
C 0.216847679 3.016136423 -0.554216931
C -2.155230472 2.584169956 0.225410708
O -2.887386226 0.222860863 0.795886976
N -1.922994659 -1.952162279 -0.613298557
C 0.425468719 -2.466101890 -0.431461040
H 4.383034666 -1.734702725 0.957069049
H -3.671019651 3.934478691 0.524629433
H 0.839798201 -4.239598161 -1.395879556

