10

C 3.879286518 -0.582241778 0.748855245
C 1.870248132 0.306185011 -0.059242442
C 0.130124802 2.291020730 -0.736347205
C -2.205595264 2.355973206 0.177071703
O -3.545836633 0.238068340 0.810311841
N -2.477982201 -1.900622701 -0.042151437
C -0.228692218 -1.704195781 -0.860705810
H 5.315634143 -1.807344686 1.452414322
H -3.344223888 4.036442605 0.411470365
H 0.557023118 -3.267388834 -1.909345091

