10

N 5.675891021 -1.768358067 0.179812373
C 3.775784669 -0.716166876 0.144221252
C 1.429083083 0.534296081 0.096609867
C 0.572021572 2.923363437 0.182287839
O -1.960699117 2.394278105 0.028178802
C -2.762290968 -2.156397661 -0.251819537
C -1.250777615 -0.201712163 -0.074802522
H 1.273255473 4.834105092 0.319594110
H -4.787399755 -1.898206308 -0.338327457
H -1.980991506 -4.042159688 -0.313110366

