12

N -1.382924047 -0.125475093 1.661200599
C -1.756984524 0.195681159 -1.310901633
C 0.165894502 2.332361494 -1.433398121
N 1.902382660 2.229222283 0.245482945
C 1.388188503 -0.206513050 1.532165564
N 1.745394021 -2.355888962 -0.228478452
C 0.017077625 -1.995925898 -1.880118190
H -2.096873443 1.391634796 2.593883356
H -2.201259835 -1.751449818 2.268973220
H 0.135809722 3.810680710 -2.852754652
H 2.358298306 -0.425351121 3.326308264
H -0.103170694 -3.152582378 -3.568300035

