15

C -3.543769594 -1.049018908 -0.693745332
C -1.672444734 -1.239224453 1.462949866
C 1.879753360 3.066327851 -1.688073053
C 1.750293533 1.190999644 -0.031576662
O -0.158667642 0.983852988 1.687945496
C 3.852052730 -0.674122530 0.252818068
O 5.536291113 -0.952284187 -1.242462726
H -4.775375957 0.583860838 -0.439544117
H -4.712009302 -2.747913213 -0.763261629
H -2.575106679 -0.864551781 -2.505089132
H -0.461844303 -2.905949592 1.230431010
H -2.639574137 -1.415711589 3.273210929
H 3.525474173 3.223662839 -2.888987599
H 0.391313658 4.460980937 -1.822702074
H 3.776663561 -1.787276701 2.027125522

