15

C -4.246393691 0.242498992 0.068944900
C -2.220069583 -1.641429586 -0.285077601
C 1.779322693 0.078833346 -2.177569189
C 2.261785420 0.449689981 0.350174377
O 0.582691230 0.468876011 2.042482155
C 4.924248865 0.914703090 1.278353387
O 6.784295574 0.041815746 0.319998228
H -4.323753693 0.959303442 1.989326729
H -6.039856373 -0.691070406 -0.408407893
H -4.056132115 1.823546120 -1.240528553
H -2.067006813 -2.488170679 -2.135565604
H -1.692997093 -2.857436694 1.262357838
H 3.282606004 -0.333125079 -3.500765947
H 0.081194955 0.937733447 -2.926035264
H 5.001697589 2.090006858 3.009251924

