11

N 2.267706253 1.291012606 0.899724063
C 4.114561899 0.605062167 -0.467442711
O -1.394060278 -1.335707463 -2.108549588
C -1.955101767 -1.964805775 0.468120008
C -1.926284861 0.629349759 -0.446429693
O -0.061219001 2.402585795 0.054880311
H 2.253825213 1.269108034 2.809547235
H 3.625016120 0.908801797 -2.459573869
H -0.360686545 -2.695873689 1.529922365
H -3.743180903 -2.925384121 0.766949354
H -3.664677087 1.664823998 -0.787956438

