10

N 4.028926333 -0.495671081 -0.313945662
C 1.750511834 0.114769171 -0.020644956
C -0.357716689 -1.699305698 -0.054761258
C -2.632882938 -0.547754786 0.123869318
C -1.769118172 2.355004778 0.773554721
O -2.637783981 1.854090180 -1.480054930
O 0.887102223 2.469037976 0.632635936
H 5.183633523 1.039722268 -0.256752478
H -0.006475449 -3.702617100 0.122942728
H -4.481721626 -1.308406099 0.494790166

