15

C 3.061721285 0.077202304 -1.741176303
C 0.626759039 0.382121879 -0.276254772
C -0.539563371 -1.900244265 0.873987278
C -3.250659410 -1.134357768 0.926978052
C -1.716197469 -0.768591261 -1.407375308
O -0.292329595 3.362398859 3.050554874
C 0.354332190 2.943382062 0.918150385
H 3.295865003 1.593163089 -3.122043553
H 3.073899095 -1.716339331 -2.757839075
H 4.693638329 0.112758541 -0.480039039
H 0.286339239 -3.749621448 1.087501329
H -4.610229427 -2.667546997 0.857825282
H -3.836291356 0.473203012 2.055857806
H -1.942165306 -1.554344070 -3.273546393
H 0.784081989 4.530200962 -0.393349403

