15

C 3.889031703 -0.061999609 -1.038000406
C 1.185346113 -0.037355067 -0.326149060
C -0.355771424 -2.051292984 0.033841934
C -2.975407042 -1.317903749 1.054895994
C -2.779398356 0.728714072 -0.773180556
O -0.958067240 3.406407349 2.039307793
C -0.524197555 2.329067739 -0.169664468
H 4.168343920 0.964793758 -2.807806155
H 4.655838742 -1.965575725 -1.227924194
H 4.955335804 0.951276868 0.410875951
H 0.093415209 -4.006163486 -0.386864676
H -4.438669904 -2.711523967 0.693411682
H -2.900064021 -0.694147617 3.008610362
H -3.994946922 0.869873363 -2.428187653
H -0.020787101 3.595830963 -1.771103140

