9

O -3.915501343 1.932184567 0.400274191
C -1.954084149 1.389228721 -0.585073419
C -0.484968069 -0.996290844 0.014157261
C 4.218835362 -0.885966214 -0.718756084
C 2.232338649 -0.396773417 0.615262096
H -1.078817300 2.623239401 -2.035547389
H -0.564810831 -2.212623476 -1.654916844
H -1.393769639 -1.973501161 1.582279079
H 2.731036617 0.607514880 2.354674416

