9

O -3.415434381 1.734519649 0.984757921
C -1.701042924 1.201331816 -0.392155946
C -0.324928807 -1.315665803 -0.300721850
C 2.897366512 -1.819717138 -0.101534947
C 2.636397073 0.304220886 0.891662585
H -1.059003427 2.509508786 -1.896703504
H -0.514580852 -2.100208223 -2.197887581
H -1.184040407 -2.543194949 1.098546816
H 2.576342371 2.058350223 1.903760213

