13

N -4.143815181 0.953231336 -0.323061493
C -1.679418240 0.596264698 -0.495153636
C -1.297465227 -2.082749856 -0.003073602
N 1.303230460 -2.153115528 0.846040402
C 2.337271815 0.116215379 0.439850045
O 4.759150768 0.427899398 1.080673673
C 0.645636080 1.896547866 -0.501118651
H -5.009885130 2.436358451 -1.167251758
H -3.944937399 -1.436704197 0.511973880
H -1.536437536 -3.192530338 -1.729645251
H 2.331153675 -3.695261605 1.239289479
H 5.269955059 2.123773354 0.689503407
H 1.006063336 3.895650016 -0.668065863

