14

O 5.561962853 -1.347721227 2.497297016
C 4.080490269 -0.584799484 0.404170409
C 2.061216484 1.291824697 1.107158260
C -0.354394834 0.888375690 0.846540895
C -2.731470120 0.480534639 0.547068778
C -5.030133659 0.407664513 -0.943871674
N -4.937595263 -0.416703016 1.729847320
H 6.415282442 0.102073254 3.170886473
H 5.284698608 0.220732351 -1.081948161
H 3.215770511 -2.295993903 -0.345538652
H 2.699075849 3.091933848 1.875569600
H -5.175877539 -1.017313782 -2.411845170
H -6.105522542 2.121000823 -1.262745138
H -4.940978572 -2.323488455 1.921938661

