12

C -2.564131830 -0.494123282 -2.132766882
C 0.330306949 -0.330897054 1.934120251
C 2.659315520 -1.562337442 1.434901852
C 4.620090339 -2.628046978 1.022675257
C -0.141622444 2.088457869 1.159881430
C -1.060652232 3.736933676 -0.192578512
H -0.611527430 -0.128717259 -2.490838481
H -3.620579081 -1.520184077 -3.567920332
H -3.548452865 0.057352715 -0.460292044
H -0.864612460 -1.146749477 3.386436836
H 6.363025354 -3.564210176 0.663203220
H -1.540471100 5.573018148 -0.874667806

