29

C     4.08991  -0.53799  -0.01916
O     2.91275  -0.71121   0.77549
C     1.84864   0.05547   0.44888
O     1.90408   0.94316  -0.39307
C     0.62489  -0.41520   1.12956
N    -0.43233   0.53762   1.18347
C    -1.26099   0.44166   0.16980
C    -2.32359   1.56056   0.04664
C    -3.46321   1.58170   1.02730
O    -2.25279   2.32443  -0.89718
C    -1.03867  -0.84976  -0.99006
C    -0.65133  -0.26298  -2.36845
C    -0.04774  -1.73450  -0.34530
C    -0.52067  -2.93155   0.45574
H     4.82971  -1.24763   0.37167
H     3.87945  -0.76214  -1.07732
H     4.47166   0.48880   0.06350
H     0.82189  -0.89253   2.15571
H    -4.20427   2.37492   0.75363
H    -3.12199   1.74166   2.05792
H    -3.97685   0.60245   1.00073
H    -2.07332  -1.29528  -1.02873
H    -0.87402  -0.88820  -3.26757
H    -1.20165   0.67777  -2.49582
H     0.42789  -0.02952  -2.40027
H     0.91545  -1.90303  -0.88765
H    -1.40381  -2.64398   1.05136
H    -0.80167  -3.83967  -0.11901
H     0.27788  -3.23387   1.15489
29

C     4.08992  -0.53820  -0.01934
O     2.91290  -0.71140   0.77563
C     1.84999   0.05718   0.45116
O     1.90307   0.94187  -0.39372
C     0.63266  -0.40066   1.14530
N    -0.42860   0.52907   1.17852
C    -1.26444   0.45921   0.18622
C    -2.32511   1.56586   0.04953
C    -3.46660   1.58288   1.02760
O    -2.25397   2.32579  -0.89824
C    -1.03579  -0.86990  -1.00637
C    -0.65055  -0.26329  -2.37055
C    -0.05332  -1.74695  -0.36031
C    -0.52085  -2.93239   0.45627
H     4.82971  -1.24768   0.37161
H     3.87938  -0.76221  -1.07735
H     4.47160   0.48876   0.06345
H     0.82247  -0.88978   2.15938
H    -4.20539   2.37501   0.75337
H    -3.12370   1.74214   2.05822
H    -3.97755   0.60270   1.00025
H    -2.07337  -1.29367  -1.02800
H    -0.87526  -0.88394  -3.27063
H    -1.20068   0.67847  -2.49198
H     0.42834  -0.03060  -2.40118
H     0.91615  -1.90258  -0.88628
H    -1.40418  -2.64340   1.05064
H    -0.80058  -3.84223  -0.11540
H     0.27821  -3.23074   1.15590
29

C     4.08993  -0.53840  -0.01951
O     2.91305  -0.71160   0.77577
C     1.85134   0.05890   0.45345
O     1.90207   0.94057  -0.39438
C     0.64042  -0.38612   1.16105
N    -0.42487   0.52052   1.17356
C    -1.26789   0.47676   0.20264
C    -2.32663   1.57117   0.05242
C    -3.46999   1.58407   1.02790
O    -2.25515   2.32715  -0.89930
C    -1.03291  -0.89004  -1.02268
C    -0.64977  -0.26360  -2.37264
C    -0.05890  -1.75940  -0.37532
C    -0.52102  -2.93324   0.45680
H     4.82971  -1.24774   0.37155
H     3.87932  -0.76229  -1.07737
H     4.47155   0.48872   0.06341
H     0.82306  -0.88704   2.16304
H    -4.20651   2.37510   0.75311
H    -3.12541   1.74261   2.05853
H    -3.97825   0.60295   0.99978
H    -2.07343  -1.29205  -1.02728
H    -0.87651  -0.87969  -3.27368
H    -1.19971   0.67918  -2.48814
H     0.42879  -0.03168  -2.40208
H     0.91685  -1.90213  -0.88492
H    -1.40454  -2.64283   1.04992
H    -0.79950  -3.84479  -0.11179
H     0.27854  -3.22761   1.15691
29

C     4.08994  -0.53861  -0.01968
O     2.91320  -0.71180   0.77591
C     1.85269   0.06061   0.45573
O     1.90106   0.93928  -0.39504
C     0.64819  -0.37158   1.17680
N    -0.42114   0.51198   1.16861
C    -1.27134   0.49431   0.21905
C    -2.32815   1.57648   0.05530
C    -3.47339   1.58525   1.02820
O    -2.25633   2.32851  -0.90037
C    -1.03002  -0.91017  -1.03900
C    -0.64899  -0.26390  -2.37474
C    -0.06448  -1.77184  -0.39033
C    -0.52119  -2.93408   0.45732
H     4.82972  -1.24780   0.37149
H     3.87925  -0.76236  -1.07739
H     4.47149   0.48869   0.06336
H     0.82364  -0.88429   2.16671
H    -4.20763   2.37519   0.75285
H    -3.12712   1.74309   2.05884
H    -3.97895   0.60319   0.99931
H    -2.07348  -1.29043  -1.02655
H    -0.87775  -0.87543  -3.27674
H    -1.19874   0.67989  -2.48430
H     0.42924  -0.03276  -2.40299
H     0.91755  -1.90168  -0.88355
H    -1.40490  -2.64226   1.04920
H    -0.79841  -3.84735  -0.10818
H     0.27887  -3.22448   1.15792
29

C     4.08995  -0.53881  -0.01985
O     2.91335  -0.71200   0.77605
C     1.85404   0.06233   0.45801
O     1.90006   0.93799  -0.39570
C     0.65596  -0.35704   1.19254
N    -0.41741   0.50343   1.16365
C    -1.27479   0.51186   0.23547
C    -2.32967   1.58179   0.05819
C    -3.47678   1.58643   1.02849
O    -2.25752   2.32987  -0.90143
C    -1.02714  -0.93031  -1.05531
C    -0.64822  -0.26421  -2.37683
C    -0.07005  -1.78429  -0.40534
C    -0.52136  -2.93493   0.45785
H     4.82972  -1.24785   0.37143
H     3.87918  -0.76244  -1.07741
H     4.47144   0.48865   0.06332
H     0.82423  -0.88155   2.17038
H    -4.20875   2.37528   0.75258
H    -3.12883   1.74356   2.05915
H    -3.97965   0.60344   0.99884
H    -2.07353  -1.28882  -1.02582
H    -0.87899  -0.87117  -3.27979
H    -1.19777   0.68060  -2.48046
H     0.42968  -0.03385  -2.40389
H     0.91825  -1.90123  -0.88219
H    -1.40527  -2.64169   1.04848
H    -0.79732  -3.84991  -0.10457
H     0.27920  -3.22135   1.15893
29

C     4.08995  -0.53902  -0.02002
O     2.91350  -0.71219   0.77619
C     1.85539   0.06405   0.46030
O     1.89905   0.93669  -0.39635
C     0.66373  -0.34250   1.20829
N    -0.41369   0.49488   1.15869
C    -1.27824   0.52941   0.25189
C    -2.33118   1.58709   0.06108
C    -3.48018   1.58761   1.02879
O    -2.25870   2.33123  -0.90249
C    -1.02426  -0.95045  -1.07163
C    -0.64744  -0.26452  -2.37893
C    -0.07563  -1.79674  -0.42035
C    -0.52153  -2.93577   0.45838
H     4.82973  -1.24791   0.37136
H     3.87911  -0.76251  -1.07744
H     4.47138   0.48861   0.06328
H     0.82481  -0.87880   2.17405
H    -4.20987   2.37538   0.75232
H    -3.13054   1.74403   2.05946
H    -3.98035   0.60369   0.99836
H    -2.07359  -1.28720  -1.02509
H    -0.88023  -0.86691  -3.28285
H    -1.19680   0.68131  -2.47662
H     0.43013  -0.03493  -2.40480
H     0.91895  -1.90078  -0.88082
H    -1.40563  -2.64112   1.04776
H    -0.79624  -3.85247  -0.10096
H     0.27952  -3.21822   1.15994
29

C     4.08996  -0.53923  -0.02019
O     2.91365  -0.71239   0.77633
C     1.85674   0.06576   0.46258
O     1.89805   0.93540  -0.39701
C     0.67149  -0.32796   1.22404
N    -0.40996   0.48633   1.15374
C    -1.28169   0.54695   0.26831
C    -2.33270   1.59240   0.06396
C    -3.48357   1.58879   1.02909
O    -2.25988   2.33259  -0.90356
C    -1.02137  -0.97059  -1.08794
C    -0.64666  -0.26483  -2.38102
C    -0.08121  -1.80918  -0.43536
C    -0.52171  -2.93662   0.45891
H     4.82973  -1.24796   0.37130
H     3.87904  -0.76259  -1.07746
H     4.47132   0.48857   0.06323
H     0.82540  -0.87606   2.17771
H    -4.21099   2.37547   0.75206
H    -3.13226   1.74451   2.05976
H    -3.98105   0.60394   0.99789
H    -2.07364  -1.28559  -1.02437
H    -0.88148  -0.86265  -3.28590
H    -1.19584   0.68201  -2.47277
H     0.43058  -0.03601  -2.40570
H     0.91965  -1.90032  -0.87946
H    -1.40600  -2.64055   1.04704
H    -0.79515  -3.85503  -0.09735
H     0.27985  -3.21509   1.16096
29

C     4.08997  -0.53943  -0.02036
O     2.91380  -0.71259   0.77647
C     1.85809   0.06748   0.46486
O     1.89704   0.93410  -0.39767
C     0.67926  -0.31342   1.23978
N    -0.40623   0.47779   1.14878
C    -1.28514   0.56450   0.28473
C    -2.33422   1.59771   0.06685
C    -3.48696   1.58997   1.02939
O    -2.26106   2.33395  -0.90462
C    -1.01849  -0.99073  -1.10425
C    -0.64588  -0.26513  -2.38312
C    -0.08679  -1.82163  -0.45037
C    -0.52188  -2.93747   0.45944
H     4.82973  -1.24802   0.37124
H     3.87897  -0.76266  -1.07748
H     4.47127   0.48854   0.06319
H     0.82598  -0.87331   2.18138
H    -4.21210   2.37556   0.75179
H    -3.13397   1.74498   2.06007
H    -3.98175   0.60418   0.99742
H    -2.07369  -1.28397  -1.02364
H    -0.88272  -0.85839  -3.28896
H    -1.19487   0.68272  -2.46893
H     0.43103  -0.03709  -2.40661
H     0.92035  -1.89987  -0.87809
H    -1.40636  -2.63998   1.04632
H    -0.79407  -3.85759  -0.09374
H     0.28018  -3.21196   1.16197
29

C     4.08998  -0.53964  -0.02053
O     2.91394  -0.71279   0.77661
C     1.85944   0.06919   0.46715
O     1.89603   0.93281  -0.39833
C     0.68703  -0.29888   1.25553
N    -0.40250   0.46924   1.14382
C    -1.28859   0.58205   0.30115
C    -2.33574   1.60301   0.06974
C    -3.49036   1.59115   1.02969
O    -2.26224   2.33531  -0.90568
C    -1.01561  -1.01087  -1.12057
C    -0.64511  -0.26544  -2.38521
C    -0.09237  -1.83408  -0.46538
C    -0.52205  -2.93831   0.45997
H     4.82974  -1.24808   0.37118
H     3.87890  -0.76274  -1.07750
H     4.47121   0.48850   0.06315
H     0.82656  -0.87057   2.18505
H    -4.21322   2.37565   0.75153
H    -3.13568   1.74546   2.06038
H    -3.98245   0.60443   0.99695
H    -2.07374  -1.28236  -1.02291
H    -0.88396  -0.85413  -3.29201
H    -1.19390   0.68343  -2.46509
H     0.43148  -0.03817  -2.40751
H     0.92105  -1.89942  -0.87673
H    -1.40673  -2.63941   1.04560
H    -0.79298  -3.86015  -0.09013
H     0.28051  -3.20883   1.16298
29

C     4.08999  -0.53984  -0.02070
O     2.91409  -0.71299   0.77675
C     1.86079   0.07091   0.46943
O     1.89503   0.93151  -0.39898
C     0.69480  -0.28434   1.27128
N    -0.39877   0.46069   1.13887
C    -1.29204   0.59960   0.31756
C    -2.33726   1.60832   0.07262
C    -3.49375   1.59233   1.02998
O    -2.26342   2.33667  -0.90675
C    -1.01273  -1.03101  -1.13688
C    -0.64433  -0.26575  -2.38731
C    -0.09795  -1.84652  -0.48039
C    -0.52222  -2.93916   0.46050
H     4.82974  -1.24813   0.37112
H     3.87883  -0.76281  -1.07752
H     4.47116   0.48846   0.06310
H     0.82715  -0.86782   2.18872
H    -4.21434   2.37574   0.75127
H    -3.13739   1.74593   2.06069
H    -3.98315   0.60468   0.99647
H    -2.07380  -1.28074  -1.02218
H    -0.88520  -0.84987  -3.29507
H    -1.19293   0.68414  -2.46125
H     0.43192  -0.03925  -2.40842
H     0.92175  -1.89897  -0.87536
H    -1.40709  -2.63884   1.04488
H    -0.79189  -3.86271  -0.08652
H     0.28083  -3.20570   1.16399
29

C     4.09000  -0.54005  -0.02088
O     2.91424  -0.71318   0.77689
C     1.86214   0.07263   0.47171
O     1.89402   0.93022  -0.39964
C     0.70256  -0.26980   1.28702
N    -0.39504   0.45214   1.13391
C    -1.29550   0.61715   0.33398
C    -2.33878   1.61363   0.07551
C    -3.49715   1.59351   1.03028
O    -2.26461   2.33802  -0.90781
C    -1.00984  -1.05115  -1.15320
C    -0.64355  -0.26606  -2.38940
C    -0.10353  -1.85897  -0.49540
C    -0.52239  -2.94000   0.46103
H     4.82975  -1.24819   0.37106
H     3.87876  -0.76289  -1.07755
H     4.47110   0.48842   0.06306
H     0.82773  -0.86508   2.19238
H    -4.21546   2.37584   0.75100
H    -3.13910   1.74640   2.06099
H    -3.98385   0.60492   0.99600
H    -2.07385  -1.27913  -1.02145
H    -0.88644  -0.84561  -3.29812
H    -1.19196   0.68484  -2.45741
H     0.43237  -0.04034  -2.40933
H     0.92246  -1.89852  -0.87400
H    -1.40746  -2.63827   1.04416
H    -0.79081  -3.86527  -0.08291
H     0.28116  -3.20257   1.16500
29

C     4.09001  -0.54025  -0.02105
O     2.91439  -0.71338   0.77703
C     1.86349   0.07434   0.47400
O     1.89302   0.92893  -0.40030
C     0.71033  -0.25526   1.30277
N    -0.39131   0.44359   1.12896
C    -1.29895   0.63470   0.35040
C    -2.34030   1.61893   0.07840
C    -3.50054   1.59469   1.03058
O    -2.26579   2.33938  -0.90887
C    -1.00696  -1.07128  -1.16951
C    -0.64277  -0.26636  -2.39150
C    -0.10911  -1.87142  -0.51041
C    -0.52256  -2.94085   0.46156
H     4.82975  -1.24824   0.37100
H     3.87870  -0.76296  -1.07757
H     4.47105   0.48839   0.06301
H     0.82832  -0.86234   2.19605
H    -4.21658   2.37593   0.75074
H    -3.14081   1.74688   2.06130
H    -3.98454   0.60517   0.99553
H    -2.07390  -1.27751  -1.02073
H    -0.88769  -0.84135  -3.30118
H    -1.19099   0.68555  -2.45357
H     0.43282  -0.04142  -2.41023
H     0.92316  -1.89807  -0.87263
H    -1.40782  -2.63770   1.04344
H    -0.78972  -3.86783  -0.07930
H     0.28149  -3.19943   1.16601
29

C     4.09002  -0.54046  -0.02122
O     2.91454  -0.71358   0.77717
C     1.86484   0.07606   0.47628
O     1.89201   0.92763  -0.40096
C     0.71810  -0.24072   1.31851
N    -0.38759   0.43505   1.12400
C    -1.30240   0.65225   0.36682
C    -2.34181   1.62424   0.08128
C    -3.50393   1.59588   1.03088
O    -2.26697   2.34074  -0.90993
C    -1.00408  -1.09142  -1.18582
C    -0.64200  -0.26667  -2.39359
C    -0.11469  -1.88386  -0.52542
C    -0.52274  -2.94169   0.46209
H     4.82975  -1.24830   0.37094
H     3.87863  -0.76303  -1.07759
H     4.47099   0.48835   0.06297
H     0.82890  -0.85959   2.19972
H    -4.21770   2.37602   0.75048
H    -3.14252   1.74735   2.06161
H    -3.98524   0.60542   0.99506
H    -2.07396  -1.27589  -1.02000
H    -0.88893  -0.83709  -3.30423
H    -1.19002   0.68626  -2.44973
H     0.43327  -0.04250  -2.41114
H     0.92386  -1.89761  -0.87127
H    -1.40819  -2.63713   1.04272
H    -0.78864  -3.87039  -0.07570
H     0.28182  -3.19630   1.16702
29

C     4.09003  -0.54067  -0.02139
O     2.91469  -0.71378   0.77731
C     1.86619   0.07778   0.47856
O     1.89101   0.92634  -0.40161
C     0.72586  -0.22619   1.33426
N    -0.38386   0.42650   1.11904
C    -1.30585   0.66979   0.38324
C    -2.34333   1.62955   0.08417
C    -3.50733   1.59706   1.03118
O    -2.26815   2.34210  -0.91100
C    -1.00119  -1.11156  -1.20214
C    -0.64122  -0.26698  -2.39568
C    -0.12026  -1.89631  -0.54043
C    -0.52291  -2.94254   0.46262
H     4.82976  -1.24836   0.37088
H     3.87856  -0.76311  -1.07761
H     4.47093   0.48831   0.06293
H     0.82949  -0.85685   2.20339
H    -4.21882   2.37611   0.75022
H    -3.14423   1.74783   2.06192
H    -3.98594   0.60567   0.99458
H    -2.07401  -1.27428  -1.01927
H    -0.89017  -0.83283  -3.30729
H    -1.18905   0.68697  -2.44589
H     0.43372  -0.04358  -2.41204
H     0.92456  -1.89716  -0.86990
H    -1.40855  -2.63656   1.04200
H    -0.78755  -3.87295  -0.07209
H     0.28214  -3.19317   1.16803
29

C     4.09004  -0.54087  -0.02156
O     2.91484  -0.71397   0.77745
C     1.86754   0.07949   0.48085
O     1.89000   0.92504  -0.40227
C     0.73363  -0.21165   1.35001
N    -0.38013   0.41795   1.11409
C    -1.30930   0.68734   0.39966
C    -2.34485   1.63485   0.08706
C    -3.51072   1.59824   1.03148
O    -2.26933   2.34346  -0.91206
C    -0.99831  -1.13170  -1.21845
C    -0.64044  -0.26729  -2.39778
C    -0.12584  -1.90876  -0.55544
C    -0.52308  -2.94338   0.46315
H     4.82976  -1.24841   0.37082
H     3.87849  -0.76318  -1.07764
H     4.47088   0.48828   0.06288
H     0.83007  -0.85410   2.20705
H    -4.21994   2.37620   0.74995
H    -3.14594   1.74830   2.06222
H    -3.98664   0.60591   0.99411
H    -2.07406  -1.27266  -1.01854
H    -0.89141  -0.82858  -3.31034
H    -1.18809   0.68768  -2.44205
H     0.43416  -0.04466  -2.41295
H     0.92526  -1.89671  -0.86854
H    -1.40892  -2.63599   1.04128
H    -0.78646  -3.87551  -0.06848
H     0.28247  -3.19004   1.16904
29

C     4.09004  -0.54108  -0.02173
O     2.91499  -0.71417   0.77759
C     1.86889   0.08121   0.48313
O     1.88899   0.92375  -0.40293
C     0.74140  -0.19711   1.36575
N    -0.37640   0.40940   1.10913
C    -1.31275   0.70489   0.41608
C    -2.34637   1.64016   0.08994
C    -3.51412   1.59942   1.03177
O    -2.27051   2.34482  -0.91312
C    -0.99543  -1.15184  -1.23477
C    -0.63966  -0.26760  -2.39987
C    -0.13142  -1.92120  -0.57045
C    -0.52325  -2.94423   0.46368
H     4.82976  -1.24847   0.37075
H     3.87842  -0.76326  -1.07766
H     4.47082   0.48824   0.06284
H     0.83065  -0.85136   2.21072
H    -4.22106   2.37630   0.74969
H    -3.14765   1.74878   2.06253
H    -3.98734   0.60616   0.99364
H    -2.07411  -1.27105  -1.01781
H    -0.89266  -0.82432  -3.31339
H    -1.18712   0.68838  -2.43821
H     0.43461  -0.04574  -2.41385
H     0.92596  -1.89626  -0.86718
H    -1.40928  -2.63542   1.04056
H    -0.78538  -3.87807  -0.06487
H     0.28280  -3.18691   1.17006
29

C     4.09005  -0.54128  -0.02190
O     2.91513  -0.71437   0.77773
C     1.87024   0.08292   0.48541
O     1.88799   0.92245  -0.40359
C     0.74917  -0.18257   1.38150
N    -0.37267   0.40086   1.10417
C    -1.31620   0.72244   0.43249
C    -2.34789   1.64547   0.09283
C    -3.51751   1.60060   1.03207
O    -2.27170   2.34618  -0.91419
C    -0.99255  -1.17198  -1.25108
C    -0.63889  -0.26790  -2.40197
C    -0.13700  -1.93365  -0.58546
C    -0.52342  -2.94508   0.46421
H     4.82977  -1.24852   0.37069
H     3.87835  -0.76333  -1.07768
H     4.47077   0.48820   0.06280
H     0.83124  -0.84861   2.21439
H    -4.22218   2.37639   0.74943
H    -3.14937   1.74925   2.06284
H    -3.98804   0.60641   0.99317
H    -2.07417  -1.26943  -1.01709
H    -0.89390  -0.82006  -3.31645
H    -1.18615   0.68909  -2.43437
H     0.43506  -0.04682  -2.41476
H     0.92666  -1.89581  -0.86581
H    -1.40965  -2.63485   1.03984
H    -0.78429  -3.88063  -0.06126
H     0.28313  -3.18378   1.17107
29

C     4.09006  -0.54149  -0.02207
O     2.91528  -0.71457   0.77787
C     1.87159   0.08464   0.48770
O     1.88698   0.92116  -0.40425
C     0.75693  -0.16803   1.39725
N    -0.36894   0.39231   1.09922
C    -1.31965   0.73999   0.44891
C    -2.34941   1.65078   0.09572
C    -3.52091   1.60178   1.03237
O    -2.27288   2.34754  -0.91525
C    -0.98966  -1.19212  -1.26739
C    -0.63811  -0.26821  -2.40406
C    -0.14258  -1.94610  -0.60047
C    -0.52359  -2.94592   0.46474
H     4.82977  -1.24858   0.37063
H     3.87828  -0.76341  -1.07770
H     4.47071   0.48816   0.06275
H     0.83182  -0.84587   2.21806
H    -4.22329   2.37648   0.74916
H    -3.15108   1.74972   2.06315
H    -3.98874   0.60665   0.99269
H    -2.07422  -1.26782  -1.01636
H    -0.89514  -0.81580  -3.31950
H    -1.18518   0.68980  -2.43053
H     0.43551  -0.04791  -2.41566
H     0.92736  -1.89536  -0.86445
H    -1.41001  -2.63428   1.03911
H    -0.78321  -3.88319  -0.05765
H     0.28346  -3.18065   1.17208
29

C     4.09007  -0.54170  -0.02225
O     2.91543  -0.71476   0.77801
C     1.87294   0.08636   0.48998
O     1.88598   0.91987  -0.40490
C     0.76470  -0.15349   1.41299
N    -0.36522   0.38376   1.09426
C    -1.32310   0.75754   0.46533
C    -2.35093   1.65608   0.09861
C    -3.52430   1.60296   1.03267
O    -2.27406   2.34890  -0.91631
C    -0.98678  -1.21225  -1.28371
C    -0.63733  -0.26852  -2.40616
C    -0.14816  -1.95854  -0.61547
C    -0.52377  -2.94677   0.46527
H     4.82978  -1.24864   0.37057
H     3.87821  -0.76348  -1.07773
H     4.47066   0.48813   0.06271
H     0.83241  -0.84312   2.22172
H    -4.22441   2.37657   0.74890
H    -3.15279   1.75020   2.06345
H    -3.98944   0.60690   0.99222
H    -2.07427  -1.26620  -1.01563
H    -0.89638  -0.81154  -3.32256
H    -1.18421   0.69051  -2.42669
H     0.43596  -0.04899  -2.41657
H     0.92806  -1.89491  -0.86308
H    -1.41038  -2.63371   1.03839
H    -0.78212  -3.88575  -0.05404
H     0.28378  -3.17752   1.17309
29

C     4.09008  -0.54190  -0.02242
O     2.91558  -0.71496   0.77815
C     1.87428   0.08807   0.49226
O     1.88497   0.91857  -0.40556
C     0.77247  -0.13895   1.42874
N    -0.36149   0.37521   1.08931
C    -1.32655   0.77509   0.48175
C    -2.35245   1.66139   0.10149
C    -3.52769   1.60414   1.03297
O    -2.27524   2.35026  -0.91737
C    -0.98390  -1.23239  -1.30002
C    -0.63655  -0.26883  -2.40825
C    -0.15374  -1.97099  -0.63048
C    -0.52394  -2.94761   0.46580
H     4.82978  -1.24869   0.37051
H     3.87814  -0.76356  -1.07775
H     4.47060   0.48809   0.06266
H     0.83299  -0.84038   2.22539
H    -4.22553   2.37666   0.74864
H    -3.15450   1.75067   2.06376
H    -3.99014   0.60715   0.99175
H    -2.07433  -1.26458  -1.01490
H    -0.89763  -0.80728  -3.32561
H    -1.18324   0.69122  -2.42285
H     0.43640  -0.05007  -2.41747
H     0.92876  -1.89445  -0.86172
H    -1.41074  -2.63314   1.03767
H    -0.78104  -3.88831  -0.05043
H     0.28411  -3.17439   1.17410
29

C     4.09009  -0.54211  -0.02259
O     2.91573  -0.71516   0.77829
C     1.87563   0.08979   0.49455
O     1.88397   0.91728  -0.40622
C     0.78024  -0.12441   1.44449
N    -0.35776   0.36666   1.08435
C    -1.33000   0.79263   0.49817
C    -2.35396   1.66670   0.10438
C    -3.53109   1.60532   1.03327
O    -2.27642   2.35162  -0.91844
C    -0.98101  -1.25253  -1.31634
C    -0.63578  -0.26913  -2.41035
C    -0.15932  -1.98344  -0.64549
C    -0.52411  -2.94846   0.46633
H     4.82978  -1.24875   0.37045
H     3.87808  -0.76363  -1.07777
H     4.47054   0.48805   0.06262
H     0.83358  -0.83763   2.22906
H    -4.22665   2.37675   0.74838
H    -3.15621   1.75115   2.06407
H    -3.99084   0.60739   0.99128
H    -2.07438  -1.26297  -1.01418
H    -0.89887  -0.80302  -3.32867
H    -1.18227   0.69192  -2.41900
H     0.43685  -0.05115  -2.41838
H     0.92947  -1.89400  -0.86035
H    -1.41110  -2.63257   1.03695
H    -0.77995  -3.89087  -0.04682
H     0.28444  -3.17126   1.17511
29

C     4.09008  -0.54190  -0.02242
O     2.91558  -0.71496   0.77815
C     1.87428   0.08807   0.49226
O     1.88497   0.91857  -0.40556
C     0.77247  -0.13895   1.42874
N    -0.36149   0.37521   1.08931
C    -1.32655   0.77509   0.48175
C    -2.35245   1.66139   0.10149
C    -3.52769   1.60414   1.03297
O    -2.27524   2.35026  -0.91737
C    -0.98390  -1.23239  -1.30002
C    -0.63655  -0.26883  -2.40825
C    -0.15374  -1.97099  -0.63048
C    -0.52394  -2.94761   0.46580
H     4.82978  -1.24869   0.37051
H     3.87814  -0.76356  -1.07775
H     4.47060   0.48809   0.06266
H     0.83299  -0.84038   2.22539
H    -4.22553   2.37666   0.74864
H    -3.15450   1.75067   2.06376
H    -3.99014   0.60715   0.99175
H    -2.07433  -1.26458  -1.01490
H    -0.89763  -0.80728  -3.32561
H    -1.18324   0.69122  -2.42285
H     0.43640  -0.05007  -2.41747
H     0.92876  -1.89445  -0.86172
H    -1.41074  -2.63314   1.03767
H    -0.78104  -3.88831  -0.05043
H     0.28411  -3.17439   1.17410
29

C     4.09007  -0.54170  -0.02225
O     2.91543  -0.71476   0.77801
C     1.87294   0.08636   0.48998
O     1.88598   0.91987  -0.40490
C     0.76470  -0.15349   1.41299
N    -0.36522   0.38376   1.09426
C    -1.32310   0.75754   0.46533
C    -2.35093   1.65608   0.09861
C    -3.52430   1.60296   1.03267
O    -2.27406   2.34890  -0.91631
C    -0.98678  -1.21225  -1.28371
C    -0.63733  -0.26852  -2.40616
C    -0.14816  -1.95854  -0.61547
C    -0.52377  -2.94677   0.46527
H     4.82978  -1.24864   0.37057
H     3.87821  -0.76348  -1.07773
H     4.47066   0.48813   0.06271
H     0.83241  -0.84312   2.22172
H    -4.22441   2.37657   0.74890
H    -3.15279   1.75020   2.06345
H    -3.98944   0.60690   0.99222
H    -2.07427  -1.26620  -1.01563
H    -0.89638  -0.81154  -3.32256
H    -1.18421   0.69051  -2.42669
H     0.43596  -0.04899  -2.41657
H     0.92806  -1.89491  -0.86308
H    -1.41038  -2.63371   1.03839
H    -0.78212  -3.88575  -0.05404
H     0.28378  -3.17752   1.17309
29

C     4.09006  -0.54149  -0.02207
O     2.91528  -0.71457   0.77787
C     1.87159   0.08464   0.48770
O     1.88698   0.92116  -0.40425
C     0.75693  -0.16803   1.39725
N    -0.36894   0.39231   1.09922
C    -1.31965   0.73999   0.44891
C    -2.34941   1.65078   0.09572
C    -3.52091   1.60178   1.03237
O    -2.27288   2.34754  -0.91525
C    -0.98966  -1.19212  -1.26739
C    -0.63811  -0.26821  -2.40406
C    -0.14258  -1.94610  -0.60047
C    -0.52359  -2.94592   0.46474
H     4.82977  -1.24858   0.37063
H     3.87828  -0.76341  -1.07770
H     4.47071   0.48816   0.06275
H     0.83182  -0.84587   2.21806
H    -4.22329   2.37648   0.74916
H    -3.15108   1.74972   2.06315
H    -3.98874   0.60665   0.99269
H    -2.07422  -1.26782  -1.01636
H    -0.89514  -0.81580  -3.31950
H    -1.18518   0.68980  -2.43053
H     0.43551  -0.04791  -2.41566
H     0.92736  -1.89536  -0.86445
H    -1.41001  -2.63428   1.03911
H    -0.78321  -3.88319  -0.05765
H     0.28346  -3.18065   1.17208
29

C     4.09005  -0.54128  -0.02190
O     2.91513  -0.71437   0.77773
C     1.87024   0.08292   0.48541
O     1.88799   0.92245  -0.40359
C     0.74917  -0.18257   1.38150
N    -0.37267   0.40086   1.10417
C    -1.31620   0.72244   0.43249
C    -2.34789   1.64547   0.09283
C    -3.51751   1.60060   1.03207
O    -2.27170   2.34618  -0.91419
C    -0.99255  -1.17198  -1.25108
C    -0.63889  -0.26790  -2.40197
C    -0.13700  -1.93365  -0.58546
C    -0.52342  -2.94508   0.46421
H     4.82977  -1.24852   0.37069
H     3.87835  -0.76333  -1.07768
H     4.47077   0.48820   0.06280
H     0.83124  -0.84861   2.21439
H    -4.22218   2.37639   0.74943
H    -3.14937   1.74925   2.06284
H    -3.98804   0.60641   0.99317
H    -2.07417  -1.26943  -1.01709
H    -0.89390  -0.82006  -3.31645
H    -1.18615   0.68909  -2.43437
H     0.43506  -0.04682  -2.41476
H     0.92666  -1.89581  -0.86581
H    -1.40965  -2.63485   1.03984
H    -0.78429  -3.88063  -0.06126
H     0.28313  -3.18378   1.17107
29

C     4.09004  -0.54108  -0.02173
O     2.91499  -0.71417   0.77759
C     1.86889   0.08121   0.48313
O     1.88899   0.92375  -0.40293
C     0.74140  -0.19711   1.36575
N    -0.37640   0.40940   1.10913
C    -1.31275   0.70489   0.41608
C    -2.34637   1.64016   0.08994
C    -3.51412   1.59942   1.03177
O    -2.27051   2.34482  -0.91312
C    -0.99543  -1.15184  -1.23477
C    -0.63966  -0.26760  -2.39987
C    -0.13142  -1.92120  -0.57045
C    -0.52325  -2.94423   0.46368
H     4.82976  -1.24847   0.37075
H     3.87842  -0.76326  -1.07766
H     4.47082   0.48824   0.06284
H     0.83065  -0.85136   2.21072
H    -4.22106   2.37630   0.74969
H    -3.14765   1.74878   2.06253
H    -3.98734   0.60616   0.99364
H    -2.07411  -1.27105  -1.01781
H    -0.89266  -0.82432  -3.31339
H    -1.18712   0.68838  -2.43821
H     0.43461  -0.04574  -2.41385
H     0.92596  -1.89626  -0.86718
H    -1.40928  -2.63542   1.04056
H    -0.78538  -3.87807  -0.06487
H     0.28280  -3.18691   1.17006
29

C     4.09004  -0.54087  -0.02156
O     2.91484  -0.71397   0.77745
C     1.86754   0.07949   0.48085
O     1.89000   0.92504  -0.40227
C     0.73363  -0.21165   1.35001
N    -0.38013   0.41795   1.11409
C    -1.30930   0.68734   0.39966
C    -2.34485   1.63485   0.08706
C    -3.51072   1.59824   1.03148
O    -2.26933   2.34346  -0.91206
C    -0.99831  -1.13170  -1.21845
C    -0.64044  -0.26729  -2.39778
C    -0.12584  -1.90876  -0.55544
C    -0.52308  -2.94338   0.46315
H     4.82976  -1.24841   0.37082
H     3.87849  -0.76318  -1.07764
H     4.47088   0.48828   0.06288
H     0.83007  -0.85410   2.20705
H    -4.21994   2.37620   0.74995
H    -3.14594   1.74830   2.06222
H    -3.98664   0.60591   0.99411
H    -2.07406  -1.27266  -1.01854
H    -0.89141  -0.82858  -3.31034
H    -1.18809   0.68768  -2.44205
H     0.43416  -0.04466  -2.41295
H     0.92526  -1.89671  -0.86854
H    -1.40892  -2.63599   1.04128
H    -0.78646  -3.87551  -0.06848
H     0.28247  -3.19004   1.16904
29

C     4.09003  -0.54067  -0.02139
O     2.91469  -0.71378   0.77731
C     1.86619   0.07778   0.47856
O     1.89101   0.92634  -0.40161
C     0.72586  -0.22619   1.33426
N    -0.38386   0.42650   1.11904
C    -1.30585   0.66979   0.38324
C    -2.34333   1.62955   0.08417
C    -3.50733   1.59706   1.03118
O    -2.26815   2.34210  -0.91100
C    -1.00119  -1.11156  -1.20214
C    -0.64122  -0.26698  -2.39568
C    -0.12026  -1.89631  -0.54043
C    -0.52291  -2.94254   0.46262
H     4.82976  -1.24836   0.37088
H     3.87856  -0.76311  -1.07761
H     4.47093   0.48831   0.06293
H     0.82949  -0.85685   2.20339
H    -4.21882   2.37611   0.75022
H    -3.14423   1.74783   2.06192
H    -3.98594   0.60567   0.99458
H    -2.07401  -1.27428  -1.01927
H    -0.89017  -0.83283  -3.30729
H    -1.18905   0.68697  -2.44589
H     0.43372  -0.04358  -2.41204
H     0.92456  -1.89716  -0.86990
H    -1.40855  -2.63656   1.04200
H    -0.78755  -3.87295  -0.07209
H     0.28214  -3.19317   1.16803
29

C     4.09002  -0.54046  -0.02122
O     2.91454  -0.71358   0.77717
C     1.86484   0.07606   0.47628
O     1.89201   0.92763  -0.40096
C     0.71810  -0.24072   1.31851
N    -0.38759   0.43505   1.12400
C    -1.30240   0.65225   0.36682
C    -2.34181   1.62424   0.08128
C    -3.50393   1.59588   1.03088
O    -2.26697   2.34074  -0.90993
C    -1.00408  -1.09142  -1.18582
C    -0.64200  -0.26667  -2.39359
C    -0.11469  -1.88386  -0.52542
C    -0.52274  -2.94169   0.46209
H     4.82975  -1.24830   0.37094
H     3.87863  -0.76303  -1.07759
H     4.47099   0.48835   0.06297
H     0.82890  -0.85959   2.19972
H    -4.21770   2.37602   0.75048
H    -3.14252   1.74735   2.06161
H    -3.98524   0.60542   0.99506
H    -2.07396  -1.27589  -1.02000
H    -0.88893  -0.83709  -3.30423
H    -1.19002   0.68626  -2.44973
H     0.43327  -0.04250  -2.41114
H     0.92386  -1.89761  -0.87127
H    -1.40819  -2.63713   1.04272
H    -0.78864  -3.87039  -0.07570
H     0.28182  -3.19630   1.16702
29

C     4.09001  -0.54025  -0.02105
O     2.91439  -0.71338   0.77703
C     1.86349   0.07434   0.47400
O     1.89302   0.92893  -0.40030
C     0.71033  -0.25526   1.30277
N    -0.39131   0.44359   1.12896
C    -1.29895   0.63470   0.35040
C    -2.34030   1.61893   0.07840
C    -3.50054   1.59469   1.03058
O    -2.26579   2.33938  -0.90887
C    -1.00696  -1.07128  -1.16951
C    -0.64277  -0.26636  -2.39150
C    -0.10911  -1.87142  -0.51041
C    -0.52256  -2.94085   0.46156
H     4.82975  -1.24824   0.37100
H     3.87870  -0.76296  -1.07757
H     4.47105   0.48839   0.06301
H     0.82832  -0.86234   2.19605
H    -4.21658   2.37593   0.75074
H    -3.14081   1.74688   2.06130
H    -3.98454   0.60517   0.99553
H    -2.07390  -1.27751  -1.02073
H    -0.88769  -0.84135  -3.30118
H    -1.19099   0.68555  -2.45357
H     0.43282  -0.04142  -2.41023
H     0.92316  -1.89807  -0.87263
H    -1.40782  -2.63770   1.04344
H    -0.78972  -3.86783  -0.07930
H     0.28149  -3.19943   1.16601
29

C     4.09000  -0.54005  -0.02088
O     2.91424  -0.71318   0.77689
C     1.86214   0.07263   0.47171
O     1.89402   0.93022  -0.39964
C     0.70256  -0.26980   1.28702
N    -0.39504   0.45214   1.13391
C    -1.29550   0.61715   0.33398
C    -2.33878   1.61363   0.07551
C    -3.49715   1.59351   1.03028
O    -2.26461   2.33802  -0.90781
C    -1.00984  -1.05115  -1.15320
C    -0.64355  -0.26606  -2.38940
C    -0.10353  -1.85897  -0.49540
C    -0.52239  -2.94000   0.46103
H     4.82975  -1.24819   0.37106
H     3.87876  -0.76289  -1.07755
H     4.47110   0.48842   0.06306
H     0.82773  -0.86508   2.19238
H    -4.21546   2.37584   0.75100
H    -3.13910   1.74640   2.06099
H    -3.98385   0.60492   0.99600
H    -2.07385  -1.27913  -1.02145
H    -0.88644  -0.84561  -3.29812
H    -1.19196   0.68484  -2.45741
H     0.43237  -0.04034  -2.40933
H     0.92246  -1.89852  -0.87400
H    -1.40746  -2.63827   1.04416
H    -0.79081  -3.86527  -0.08291
H     0.28116  -3.20257   1.16500
29

C     4.08999  -0.53984  -0.02070
O     2.91409  -0.71299   0.77675
C     1.86079   0.07091   0.46943
O     1.89503   0.93151  -0.39898
C     0.69480  -0.28434   1.27128
N    -0.39877   0.46069   1.13887
C    -1.29204   0.59960   0.31756
C    -2.33726   1.60832   0.07262
C    -3.49375   1.59233   1.02998
O    -2.26342   2.33667  -0.90675
C    -1.01273  -1.03101  -1.13688
C    -0.64433  -0.26575  -2.38731
C    -0.09795  -1.84652  -0.48039
C    -0.52222  -2.93916   0.46050
H     4.82974  -1.24813   0.37112
H     3.87883  -0.76281  -1.07752
H     4.47116   0.48846   0.06310
H     0.82715  -0.86782   2.18872
H    -4.21434   2.37574   0.75127
H    -3.13739   1.74593   2.06069
H    -3.98315   0.60468   0.99647
H    -2.07380  -1.28074  -1.02218
H    -0.88520  -0.84987  -3.29507
H    -1.19293   0.68414  -2.46125
H     0.43192  -0.03925  -2.40842
H     0.92175  -1.89897  -0.87536
H    -1.40709  -2.63884   1.04488
H    -0.79189  -3.86271  -0.08652
H     0.28083  -3.20570   1.16399
29

C     4.08998  -0.53964  -0.02053
O     2.91394  -0.71279   0.77661
C     1.85944   0.06919   0.46715
O     1.89603   0.93281  -0.39833
C     0.68703  -0.29888   1.25553
N    -0.40250   0.46924   1.14382
C    -1.28859   0.58205   0.30115
C    -2.33574   1.60301   0.06974
C    -3.49036   1.59115   1.02969
O    -2.26224   2.33531  -0.90568
C    -1.01561  -1.01087  -1.12057
C    -0.64511  -0.26544  -2.38521
C    -0.09237  -1.83408  -0.46538
C    -0.52205  -2.93831   0.45997
H     4.82974  -1.24808   0.37118
H     3.87890  -0.76274  -1.07750
H     4.47121   0.48850   0.06315
H     0.82656  -0.87057   2.18505
H    -4.21322   2.37565   0.75153
H    -3.13568   1.74546   2.06038
H    -3.98245   0.60443   0.99695
H    -2.07374  -1.28236  -1.02291
H    -0.88396  -0.85413  -3.29201
H    -1.19390   0.68343  -2.46509
H     0.43148  -0.03817  -2.40751
H     0.92105  -1.89942  -0.87673
H    -1.40673  -2.63941   1.04560
H    -0.79298  -3.86015  -0.09013
H     0.28051  -3.20883   1.16298
29

C     4.08997  -0.53943  -0.02036
O     2.91380  -0.71259   0.77647
C     1.85809   0.06748   0.46486
O     1.89704   0.93410  -0.39767
C     0.67926  -0.31342   1.23978
N    -0.40623   0.47779   1.14878
C    -1.28514   0.56450   0.28473
C    -2.33422   1.59771   0.06685
C    -3.48696   1.58997   1.02939
O    -2.26106   2.33395  -0.90462
C    -1.01849  -0.99073  -1.10425
C    -0.64588  -0.26513  -2.38312
C    -0.08679  -1.82163  -0.45037
C    -0.52188  -2.93747   0.45944
H     4.82973  -1.24802   0.37124
H     3.87897  -0.76266  -1.07748
H     4.47127   0.48854   0.06319
H     0.82598  -0.87331   2.18138
H    -4.21210   2.37556   0.75179
H    -3.13397   1.74498   2.06007
H    -3.98175   0.60418   0.99742
H    -2.07369  -1.28397  -1.02364
H    -0.88272  -0.85839  -3.28896
H    -1.19487   0.68272  -2.46893
H     0.43103  -0.03709  -2.40661
H     0.92035  -1.89987  -0.87809
H    -1.40636  -2.63998   1.04632
H    -0.79407  -3.85759  -0.09374
H     0.28018  -3.21196   1.16197
29

C     4.08996  -0.53923  -0.02019
O     2.91365  -0.71239   0.77633
C     1.85674   0.06576   0.46258
O     1.89805   0.93540  -0.39701
C     0.67149  -0.32796   1.22404
N    -0.40996   0.48633   1.15374
C    -1.28169   0.54695   0.26831
C    -2.33270   1.59240   0.06396
C    -3.48357   1.58879   1.02909
O    -2.25988   2.33259  -0.90356
C    -1.02137  -0.97059  -1.08794
C    -0.64666  -0.26483  -2.38102
C    -0.08121  -1.80918  -0.43536
C    -0.52171  -2.93662   0.45891
H     4.82973  -1.24796   0.37130
H     3.87904  -0.76259  -1.07746
H     4.47132   0.48857   0.06323
H     0.82540  -0.87606   2.17771
H    -4.21099   2.37547   0.75206
H    -3.13226   1.74451   2.05976
H    -3.98105   0.60394   0.99789
H    -2.07364  -1.28559  -1.02437
H    -0.88148  -0.86265  -3.28590
H    -1.19584   0.68201  -2.47277
H     0.43058  -0.03601  -2.40570
H     0.91965  -1.90032  -0.87946
H    -1.40600  -2.64055   1.04704
H    -0.79515  -3.85503  -0.09735
H     0.27985  -3.21509   1.16096
29

C     4.08995  -0.53902  -0.02002
O     2.91350  -0.71219   0.77619
C     1.85539   0.06405   0.46030
O     1.89905   0.93669  -0.39635
C     0.66373  -0.34250   1.20829
N    -0.41369   0.49488   1.15869
C    -1.27824   0.52941   0.25189
C    -2.33118   1.58709   0.06108
C    -3.48018   1.58761   1.02879
O    -2.25870   2.33123  -0.90249
C    -1.02426  -0.95045  -1.07163
C    -0.64744  -0.26452  -2.37893
C    -0.07563  -1.79674  -0.42035
C    -0.52153  -2.93577   0.45838
H     4.82973  -1.24791   0.37136
H     3.87911  -0.76251  -1.07744
H     4.47138   0.48861   0.06328
H     0.82481  -0.87880   2.17405
H    -4.20987   2.37538   0.75232
H    -3.13054   1.74403   2.05946
H    -3.98035   0.60369   0.99836
H    -2.07359  -1.28720  -1.02509
H    -0.88023  -0.86691  -3.28285
H    -1.19680   0.68131  -2.47662
H     0.43013  -0.03493  -2.40480
H     0.91895  -1.90078  -0.88082
H    -1.40563  -2.64112   1.04776
H    -0.79624  -3.85247  -0.10096
H     0.27952  -3.21822   1.15994
29

C     4.08995  -0.53881  -0.01985
O     2.91335  -0.71200   0.77605
C     1.85404   0.06233   0.45801
O     1.90006   0.93799  -0.39570
C     0.65596  -0.35704   1.19254
N    -0.41741   0.50343   1.16365
C    -1.27479   0.51186   0.23547
C    -2.32967   1.58179   0.05819
C    -3.47678   1.58643   1.02849
O    -2.25752   2.32987  -0.90143
C    -1.02714  -0.93031  -1.05531
C    -0.64822  -0.26421  -2.37683
C    -0.07005  -1.78429  -0.40534
C    -0.52136  -2.93493   0.45785
H     4.82972  -1.24785   0.37143
H     3.87918  -0.76244  -1.07741
H     4.47144   0.48865   0.06332
H     0.82423  -0.88155   2.17038
H    -4.20875   2.37528   0.75258
H    -3.12883   1.74356   2.05915
H    -3.97965   0.60344   0.99884
H    -2.07353  -1.28882  -1.02582
H    -0.87899  -0.87117  -3.27979
H    -1.19777   0.68060  -2.48046
H     0.42968  -0.03385  -2.40389
H     0.91825  -1.90123  -0.88219
H    -1.40527  -2.64169   1.04848
H    -0.79732  -3.84991  -0.10457
H     0.27920  -3.22135   1.15893
29

C     4.08994  -0.53861  -0.01968
O     2.91320  -0.71180   0.77591
C     1.85269   0.06061   0.45573
O     1.90106   0.93928  -0.39504
C     0.64819  -0.37158   1.17680
N    -0.42114   0.51198   1.16861
C    -1.27134   0.49431   0.21905
C    -2.32815   1.57648   0.05530
C    -3.47339   1.58525   1.02820
O    -2.25633   2.32851  -0.90037
C    -1.03002  -0.91017  -1.03900
C    -0.64899  -0.26390  -2.37474
C    -0.06448  -1.77184  -0.39033
C    -0.52119  -2.93408   0.45732
H     4.82972  -1.24780   0.37149
H     3.87925  -0.76236  -1.07739
H     4.47149   0.48869   0.06336
H     0.82364  -0.88429   2.16671
H    -4.20763   2.37519   0.75285
H    -3.12712   1.74309   2.05884
H    -3.97895   0.60319   0.99931
H    -2.07348  -1.29043  -1.02655
H    -0.87775  -0.87543  -3.27674
H    -1.19874   0.67989  -2.48430
H     0.42924  -0.03276  -2.40299
H     0.91755  -1.90168  -0.88355
H    -1.40490  -2.64226   1.04920
H    -0.79841  -3.84735  -0.10818
H     0.27887  -3.22448   1.15792
29

C     4.08993  -0.53840  -0.01951
O     2.91305  -0.71160   0.77577
C     1.85134   0.05890   0.45345
O     1.90207   0.94057  -0.39438
C     0.64042  -0.38612   1.16105
N    -0.42487   0.52052   1.17356
C    -1.26789   0.47676   0.20264
C    -2.32663   1.57117   0.05242
C    -3.46999   1.58407   1.02790
O    -2.25515   2.32715  -0.89930
C    -1.03291  -0.89004  -1.02268
C    -0.64977  -0.26360  -2.37264
C    -0.05890  -1.75940  -0.37532
C    -0.52102  -2.93324   0.45680
H     4.82971  -1.24774   0.37155
H     3.87932  -0.76229  -1.07737
H     4.47155   0.48872   0.06341
H     0.82306  -0.88704   2.16304
H    -4.20651   2.37510   0.75311
H    -3.12541   1.74261   2.05853
H    -3.97825   0.60295   0.99978
H    -2.07343  -1.29205  -1.02728
H    -0.87651  -0.87969  -3.27368
H    -1.19971   0.67918  -2.48814
H     0.42879  -0.03168  -2.40208
H     0.91685  -1.90213  -0.88492
H    -1.40454  -2.64283   1.04992
H    -0.79950  -3.84479  -0.11179
H     0.27854  -3.22761   1.15691
29

C     4.08992  -0.53820  -0.01934
O     2.91290  -0.71140   0.77563
C     1.84999   0.05718   0.45116
O     1.90307   0.94187  -0.39372
C     0.63266  -0.40066   1.14530
N    -0.42860   0.52907   1.17852
C    -1.26444   0.45921   0.18622
C    -2.32511   1.56586   0.04953
C    -3.46660   1.58288   1.02760
O    -2.25397   2.32579  -0.89824
C    -1.03579  -0.86990  -1.00637
C    -0.65055  -0.26329  -2.37055
C    -0.05332  -1.74695  -0.36031
C    -0.52085  -2.93239   0.45627
H     4.82971  -1.24768   0.37161
H     3.87938  -0.76221  -1.07735
H     4.47160   0.48876   0.06345
H     0.82247  -0.88978   2.15938
H    -4.20539   2.37501   0.75337
H    -3.12370   1.74214   2.05822
H    -3.97755   0.60270   1.00025
H    -2.07337  -1.29367  -1.02800
H    -0.87526  -0.88394  -3.27063
H    -1.20068   0.67847  -2.49198
H     0.42834  -0.03060  -2.40118
H     0.91615  -1.90258  -0.88628
H    -1.40418  -2.64340   1.05064
H    -0.80058  -3.84223  -0.11540
H     0.27821  -3.23074   1.15590
