14

C 3.038627320 1.026336828 -0.074299005
C 0.804623028 -0.696041576 0.340080915
O -0.306772375 -0.352338302 2.733911401
C -2.711262240 -1.385875818 2.320740226
C -1.546542261 -0.253316313 -1.334206586
O -1.981673300 2.164449406 -2.152995190
H 2.531082976 3.008554690 0.173739681
H 4.513431476 0.573257528 1.290225856
H 3.798689415 0.777025411 -1.974814029
H 1.366082826 -2.683610690 0.100463567
H -3.452676726 -0.463599348 0.253248944
H -2.450577393 -3.393790743 1.752563453
H -1.853830134 -1.549980920 -2.901129864
H -1.668841991 3.329943247 -0.790155909

