14

C -0.512228011 -4.625553141 0.199478280
C -2.531866230 2.210118153 -0.974360364
C -0.312039874 2.635507144 0.718809809
C 1.716312100 1.177953882 0.976651128
C 2.185528961 -1.201795177 -0.466613480
O 1.410988540 -3.384527004 1.024790314
H -0.740154360 -6.143938898 1.640197314
H -2.452143107 0.412775769 -1.973219799
H -2.698860288 3.739535167 -2.353082322
H -4.269857495 2.224575484 0.140629317
H -0.398850641 4.330378166 1.877116077
H 3.149215491 1.714253659 2.341261574
H 4.196498572 -1.476734228 -0.819524086
H 1.146616346 -1.296717141 -2.239537164

