13

C 0.615041168 3.241659098 1.812820432
C -0.775436114 3.127007486 -0.259805689
C -2.708850968 1.130529731 -0.815924195
C -2.099139772 -0.254070087 -3.268978301
H -0.283715468 -1.217582667 -3.100232977
H -3.555035102 -1.654342991 -3.701208649
H -2.002559366 1.060329675 -4.856317935
O -2.827530342 -0.560795295 1.251633567
H -4.026538834 -1.859930340 0.860924262
H -4.545090057 2.085402106 -1.034331787
H -0.556060114 4.544634482 -1.730019096
H 0.410793994 1.846990913 3.295308498
H 1.987971606 4.735014922 2.083179656

