12

N 3.798170270 -0.210030416 0.104080597
C 1.754692305 1.280033014 0.530402263
O 1.747934833 3.557871883 0.239955930
C -0.404045517 -0.159289720 1.709729806
C -2.785302333 0.097780968 -0.787808888
N -1.312141312 -2.094723917 0.133835091
H 5.407346785 0.605418739 -0.484427815
H 3.608114636 -2.094317966 0.001200808
H -2.479379918 1.703874886 0.694008930
H -2.164560295 0.750644986 -2.625521283
H -4.806309753 -0.189417605 -0.583624566
H -2.476933838 -3.232974597 1.143557862

