12

N 4.672537931 -0.636169856 0.081553701
C 2.172156635 0.009741538 0.085173320
N 0.436579912 -1.813010482 0.408614743
C -2.070356390 -1.164135430 -0.068323766
C -3.623176472 0.773906399 1.290668543
C -2.886041856 1.409593166 -0.964096298
N 1.296805259 2.268918285 0.191419846
H 5.931116128 0.639464688 -0.534753055
H 5.012143560 -2.465179723 -0.310119817
H -3.106462894 -2.866071457 -0.612116175
H -4.803285133 1.089652442 2.917230520
H -3.017195577 2.741780107 -2.495541121

