16

C -3.676141621 -1.657714036 0.610858562
O -2.267886211 0.463619984 1.380370195
C -0.890215093 1.519796608 -0.587325500
C 1.329490548 3.083834331 0.129086360
C 1.730502507 0.568032133 -1.153435744
C 2.852455697 -1.598006911 0.314410157
H -4.679311748 -2.360000741 2.265193295
H -2.451999431 -3.155915704 -0.129164085
H -5.057678571 -1.153166760 -0.850775677
H -2.045538881 2.134730364 -2.175918494
H 1.748048557 3.164310963 2.131268858
H 1.692152121 4.812787413 -0.899764843
H 2.279245317 0.653751717 -3.127052953
H 2.511880959 -3.402170791 -0.629551865
H 2.031486972 -1.702757208 2.202596268
H 4.893508898 -1.371131381 0.519205465

