16

C 3.256480163 -0.601918929 0.612168293
C 0.912016107 0.436141420 -0.662862974
C -1.197084166 3.466739595 0.244880613
C -1.349847792 1.031599186 1.367878406
C -2.989018116 -0.986074701 0.083836566
C -0.942869023 -1.418631027 -1.939650138
H 4.122208166 0.817585038 1.832946506
H 4.649509558 -1.146633580 -0.810471674
H 2.823588449 -2.262233606 1.757393952
H 0.210927621 4.544645216 1.349779460
H 1.423838054 2.015476060 -1.905725151
H -0.753746631 0.681738277 3.312151135
H -3.336028014 -2.632102047 1.272076719
H -4.781058382 -0.260641534 -0.619633996
H -1.486948972 -0.824440870 -3.831766067
H -0.207724629 -3.341786935 -2.029842646

