16

C 3.386126373 -0.469895783 0.551582067
C 0.823023953 0.283085301 -0.430399903
C -0.888221224 3.315254935 0.154504632
C -1.380335292 0.900835429 1.407601640
C -3.154157843 -0.901977429 -0.005916298
C -0.976565958 -1.519738877 -1.852901580
H 4.107891827 0.941298170 1.870578040
H 4.751588954 -0.665761115 -0.982421293
H 3.277097963 -2.276397954 1.544283924
H 0.576439487 4.269604479 1.292370865
H 0.937112729 2.105199217 -1.665450083
H -1.020315915 0.663584207 3.415744372
H -3.770038900 -2.526082685 1.100822424
H -4.790762995 0.027745469 -0.837679951
H -1.293031155 -1.054084395 -3.833007258
H -0.326570223 -3.470546146 -1.723258147

