13

C -3.821938924 -0.159388364 -0.404686645
N -1.306924043 0.423692131 -1.399768234
C 0.531033072 -1.197166463 -0.581386110
O 0.635473964 -3.389360054 -0.258786976
O 1.966625600 0.804250563 2.096460424
C 3.716904374 0.671158664 0.359208874
H -5.166849599 1.113497724 -1.300705767
H -3.918103061 0.056873764 1.647725492
H -4.311382998 -2.092245144 -0.906658979
H -0.801035780 2.234331686 -1.078134977
H 5.107741819 -0.878972413 0.453858112
H 4.543991484 2.441960450 -0.376127894
H 2.671810125 -0.142832455 -1.718888496

