14

C -2.523597336 -1.624141445 0.087327003
C -0.395630265 -0.110421441 -1.116194363
C -2.610481652 1.167831451 0.212908885
O -2.276786746 2.472920343 2.439409263
C 2.062417216 -0.071412146 0.225570088
O 2.209529390 -0.072918616 2.534737631
N 4.153506056 0.005306011 -1.243081309
H -0.795012354 1.771416665 3.264671351
H -3.788378389 -2.621677146 -1.171135845
H -2.026551386 -2.605944250 1.812587731
H -0.333089854 -0.012180551 -3.159429139
H -3.924821642 2.139236832 -1.018381232
H 4.056495567 -0.000215315 -3.133305301
H 5.848580846 0.084540697 -0.393400199

