14

C -1.501503662 -2.172247493 -0.377741116
C -0.585554713 0.419626215 -0.848412972
C -2.108985170 2.222870289 0.652666031
O -2.982310873 1.678492047 2.849026392
C 2.243749703 0.926559704 -0.366278094
O 2.994428893 2.943086527 0.438445260
N 3.689621340 -1.059627188 -0.977404241
H -2.504003692 -0.111484147 3.134262674
H -3.269586699 -2.761987610 -1.213182402
H -0.800278227 -3.225324173 1.240398975
H -0.918820482 0.973285337 -2.823387835
H -2.771334403 4.036077624 -0.053184263
H 2.789374031 -2.679048834 -1.447353711
H 5.564067026 -0.994105848 -0.699672931

