9

C -4.959452289 -0.977244578 0.665249056
C -2.980603222 -2.940602747 0.113207936
C -0.753493408 -2.981022666 1.171778975
N 1.245309825 -3.132454867 2.318565926
H 2.715723089 -2.194983922 1.511685261
H -3.380292411 -4.418384771 -1.247635908
H -5.461782519 0.075103631 -1.037878217
H -4.298877452 0.371096517 2.074732882
H -6.682148167 -1.854672026 1.388004594

