16

C -4.374688653 -0.414751685 0.347293433
C -1.905649769 -1.610166278 -0.406024042
C 0.748079191 1.755256067 -1.011100760
C 3.073186102 1.408028850 0.115611592
O 5.020067900 0.540908781 -1.432558119
C -0.292319240 -2.597639678 1.304488942
N 1.594644899 -2.688073958 2.533899367
H -4.901813280 1.032498034 -1.024907779
H -4.239701113 0.469681828 2.203315385
H -5.904578156 -1.798347416 0.406013856
H -1.832263767 -2.486206913 -2.260773849
H 0.554107214 1.439494132 -3.021493966
H -0.587715464 3.033485167 -0.140220267
H 2.538262858 -0.697665399 1.778041421
H 3.637206063 2.688295926 1.629580984
H 6.153807539 -0.478061233 -0.453945985

