19

C -3.536056753 -1.664422034 -1.073503863
C -1.341455235 -0.073395508 -0.082916760
C -2.279716880 2.182749930 1.451747457
C 0.360469189 -1.680439523 1.536434475
O 2.091810186 -3.385485491 0.270766705
C 3.093697718 -1.599457767 1.805354880
C 4.367855781 1.340854869 -0.632527541
H -4.758023925 -0.538623327 -2.296450178
H -2.852382886 -3.279726478 -2.157325762
H -4.691046022 -2.379366031 0.484067841
H -0.254965401 0.609913888 -1.695874976
H -3.346534268 1.554287662 3.105936152
H -3.527569917 3.368264493 0.315821971
H -0.715357393 3.349406500 2.119493030
H -0.622037785 -2.580588585 3.110955264
H 4.828330581 -0.337122813 1.483532329
H 4.005984359 0.396654099 -2.416103327
H 6.347600824 1.903103420 -0.476099641
H 3.123911623 2.928503454 -0.261776220

