19

C -3.541445250 -0.054843783 1.087153884
C -2.044772786 -1.046052851 -1.151844821
C -0.429037939 0.681227295 -2.735982408
C 1.669670106 2.033512872 -1.899540190
C 2.547060837 1.970765763 0.718751492
C 1.806536034 -2.352900549 1.342656818
C 0.234090693 -2.643382200 -0.688873902
H -4.992400307 1.261816280 0.443532290
H -4.472002065 -1.619968155 2.059649561
H -2.383205841 0.931354752 2.473360234
H -3.349918521 -2.008934641 -2.422668085
H -0.695921975 0.571023475 -4.763213925
H 3.109890328 2.452087322 -3.301470536
H 1.448001074 4.050399953 -0.790835492
H 4.459142706 2.588486166 1.114877886
H 1.206505150 2.195034586 2.233102401
H 1.074859514 -1.763476281 3.157587185
H 3.567282549 -3.398123734 1.402375716
H 0.790885097 -3.851191582 -2.246082986

