11

N 3.805613977 -0.276541482 0.444747705
C 1.216160592 -0.086425169 0.166536461
C -0.424841670 1.883864081 0.155389250
C -2.887523628 0.766348742 -0.044866747
C -2.544859987 -1.750527368 -0.144999989
O -0.018309103 -2.299300433 -0.013270167
H 4.545651684 -1.805915637 -0.415904361
H 4.735778371 1.316790700 -0.013566665
H 0.040677526 3.861237763 0.281332580
H -4.676718572 1.738570277 -0.108032052
H -3.791629210 -3.348101455 -0.307366014

