11

N 3.502996372 0.557048459 0.098797376
C 0.868529106 -0.097226768 -0.028740221
C -0.613359199 1.875930444 0.504692576
C -3.081267175 0.690839633 0.235526299
C -2.720314519 -1.764686613 -0.405430838
O -0.196196261 -2.340868322 -0.592786733
H 4.525840891 -0.251708458 1.506956372
H 4.478812751 0.538435110 -1.553757046
H 2.369856835 2.529217722 0.626095877
H -4.919425603 1.545162742 0.481089349
H -3.986752087 -3.315238721 -0.788242467

