10

C -2.115641957 -1.378902823 -0.652713029
C 0.412691884 -0.093671948 -0.327904861
C 2.608189434 -1.160866998 -1.469966873
N 4.334684077 -2.082288385 -2.415320867
C 0.690342370 1.990370084 1.007598341
N 0.861556262 4.015893383 2.050161699
H -3.594234863 -0.306642343 0.294816834
H -2.072574324 -3.280944312 0.140671704
H -2.592824392 -1.523465076 -2.652702896
H 1.250763235 4.031530867 3.929702030

