10

C -2.018588798 -1.267020737 -0.510723335
C 0.446844998 0.129966235 -0.237213881
C 2.754577805 -0.942961922 -1.062889177
N 4.600843554 -1.872604110 -1.746242659
C 0.525885931 2.572313947 0.722521023
N 0.593375761 4.528188158 1.850493558
H -3.527587737 -0.272642523 0.475440051
H -1.876369862 -3.172388881 0.260026296
H -2.547904751 -1.415090984 -2.500741685
H 0.954514253 1.716778031 2.729277925

