14

C -2.327789320 -2.260466221 0.340278675
C -0.544924543 -0.046728165 0.610123043
C 2.151566520 -0.659158960 -0.156014220
O 3.911469952 1.177010342 0.566104254
C -0.158321576 3.686224708 -1.852631443
O -1.636791404 1.993065042 -0.944750435
H -4.265850330 -1.688783571 0.737116796
H -1.805355088 -3.746415301 1.668513613
H -2.255153766 -3.036166480 -1.570402245
H -0.559643280 0.697025103 2.534968782
H 2.679900798 -2.424178977 0.776880621
H 2.189063845 -1.010581369 -2.205431198
H 3.374195228 2.697550935 -0.316106186
H -1.449638144 4.950693049 -2.917376803

