10

O 3.839169333 -0.803397560 -0.140391023
C 1.514015274 0.077464976 0.025910356
C 0.669234658 2.443214151 -0.325655294
N -1.623994311 1.971202214 1.012258973
N -3.261996236 0.819924254 -0.590979380
C -2.588198626 -1.480954175 -0.194009659
N -0.307398971 -1.642769742 1.033825189
H 3.785114681 -2.513947507 0.501944499
H 1.580236777 4.250619119 -0.507836136
H -3.633698864 -3.126159415 -0.817745287

