13

C -1.148740833 2.878574244 1.150076737
C -0.159592322 0.509690090 -0.088250002
N -2.191263033 -1.228833530 -0.701720959
O -1.224289173 -3.735649172 -0.449694932
C 2.385314908 -0.099902299 0.185234526
O 3.437739518 -2.250763649 -0.571413987
H -2.788255257 3.582582887 0.123160746
H -1.744887367 2.445664407 3.074378500
H 0.288291893 4.355498541 1.193684567
H -2.349377910 -4.712280043 -1.483275987
H 3.707483352 1.263648672 0.950322953
H -0.367766763 0.542713280 -2.269771667
H 2.057698948 -3.456680092 -0.824301597

