16

C 4.649785307 -0.297848503 -0.286186020
C 1.973839025 -0.810183699 0.495430594
C -0.060337538 -0.624664712 -1.512621091
N -1.872154998 0.881343925 -0.113525297
C -4.555051050 0.383413658 -0.063323041
C -0.593932512 1.632184006 1.976085550
O -1.235324134 2.476945611 3.960245900
H 5.292598344 -2.113644119 -1.054715903
H 5.866111609 0.093446069 1.329989851
H 4.952235482 1.133120716 -1.757146303
H 1.551916604 1.792801467 1.323098228
H 0.420645798 0.249523236 -3.332511706
H -0.817146357 -2.518621914 -1.856522276
H -5.472022567 1.790712337 1.122943615
H -5.315371131 0.519813693 -1.972845142
H -4.964463597 -1.496929372 0.697958307

