9

C -2.712388743 -1.152475782 0.030482076
C -0.147642488 -0.278682334 0.004023454
N 0.221050052 2.176958789 -0.406349660
O 2.708469546 2.563509448 -0.351010278
C 3.938883661 0.367529036 0.093462434
H 5.969591159 0.498055953 0.172711614
C 2.249516543 -1.506245268 0.337077271
H 2.591420665 -3.478629317 0.699199139
H -2.632047434 -3.210132645 0.389153323

