12

C -3.223395726 0.286462790 1.493424743
C -2.287713993 -1.634532312 -0.447874049
C -0.334410905 -0.552806515 -2.188295955
C 2.000935808 -1.412231885 -2.448148698
H 3.330750349 -0.535697861 -3.734172521
H 2.668081525 -3.034038403 -1.384193433
H -0.920475447 1.083126121 -3.290322550
H -1.511591020 -3.293106608 0.508568008
H -3.895955641 -2.296375174 -1.570733401
H -4.686157168 -0.526251120 2.698912671
H -1.677019157 0.922822072 2.701669328
H -4.022562057 1.950686573 0.569252159

