11

C 5.358339893 -1.007739844 0.951909945
C 3.204474768 -0.433803923 0.553256516
C 0.641658660 0.229786369 0.080287943
C -1.435917448 -1.169883939 0.756334479
N -3.500283406 0.006846686 -0.120604060
N -2.862195799 2.278957720 -1.163305217
C -0.253364407 2.497506833 -1.109413365
H 7.277429490 -1.495727997 1.301433633
H -1.571162217 -2.910265783 1.811698634
H -5.323541211 -0.452377380 0.149376028
H -1.797225864 2.475109100 -3.138836113

