10

N -1.793265867 0.040660481 -0.783812476
C 0.170429221 0.067806076 0.787472498
O 2.231655929 -0.362291357 -0.651918777
C 4.559479509 -0.426532257 0.548737330
O 4.934908224 -0.137192019 2.723641344
C -4.246796600 0.430014606 0.137049553
O -6.057358185 0.417309543 -1.208392079
H -1.628365399 -0.257268543 -2.678138799
H 5.987650932 -0.797670518 -0.907703469
H -4.262593935 0.735576669 2.190643448

