10

N -1.942117081 1.665984195 -1.475825270
C -0.188616078 0.827995520 -0.012228890
O 2.033605317 0.124791164 -1.012806710
C 3.854285328 -0.797161672 0.626766824
O 3.680687131 -0.890562292 2.845504642
C -3.204622336 -0.090591845 0.672859078
O -3.905268192 -2.192971288 0.191493167
H -1.895550109 1.479159200 -3.396254417
H 5.471390586 -1.402066084 -0.518166021
H -3.928071896 1.191453103 2.111625760

