10

N 4.359532445 -0.569260417 0.502320025
C 2.077923571 -0.023853011 0.057026908
O 0.903276407 1.555730695 -1.185553983
C -2.840368971 1.315633866 -1.034035213
C -2.994468710 -0.698208695 0.538431293
N -1.841955454 -2.218240196 1.737191646
H 4.529493430 -2.070555076 1.674928534
H 0.461794338 -1.510601900 1.204601780
H -3.159788131 1.033883222 -3.033963022
H -3.183674892 3.185977958 -0.282695772

