14

C -3.243944721 0.004336487 -0.049592763
C -0.429330034 -0.002609693 0.327208006
N 0.600006507 -1.640337947 2.309978122
C 0.778708269 1.065707344 2.640585897
C 3.590420054 0.238374324 -2.761753265
C 1.124040941 0.258705491 -1.944124102
O 0.478786623 0.896535395 -4.134416855
H -3.851274087 1.736288225 -0.987257065
H -4.183454152 -0.136716110 1.776334034
H -3.829802509 -1.597351402 -1.207377334
H 2.286130478 -2.383377712 1.782912984
H -0.467736280 1.858120285 4.059089291
H 4.196723979 -1.538883975 -3.615639072
H 2.599959620 1.981118307 2.439744689

