14

C -3.504002198 0.164029683 0.082358365
C -0.702565648 -0.173129848 0.080687998
N 0.467705780 -1.873723867 1.947561476
C 1.149806582 0.701686150 1.962082661
C 3.216118561 1.229024411 -1.543495852
C 0.881764143 0.017127684 -2.289540829
O 0.310692896 -0.657074857 -4.397156363
H -4.006710486 1.998816026 -0.710221949
H -4.251788519 0.022079900 1.995624033
H -4.378054652 -1.293281770 -1.083638672
H 1.773881491 -3.081975690 1.248567278
H 0.889413773 1.912512612 3.595661304
H 4.905968523 0.041170367 -1.420139274
H 3.007300234 1.579799645 0.981871402

