11

C -2.869400493 1.011038947 0.036936398
C -0.594695243 -0.687068892 -0.217276855
O 1.617229904 0.893196193 -0.244802209
C 3.818621717 -0.291278095 -0.496910647
O 4.106642737 -2.524945354 -0.697714135
H -2.985867640 2.326718847 -1.544875522
H -4.588209639 -0.127297867 0.061134568
H -2.786767740 2.097216107 1.786315417
H -0.639571231 -1.786521359 -1.962213846
H -0.436127133 -2.013238397 1.355116708
H 5.358144760 1.102179852 -0.494820742

