10

O -4.477245431 -2.447387932 1.768610610
C -3.290930909 -0.328641212 0.908454087
C -0.839160816 -0.230520244 0.554447686
C 1.518925992 -0.074573771 0.196131783
C 3.968873993 0.064863413 -0.169054672
O 5.247029318 2.125039470 -1.016192721
H -6.255341503 -2.128192459 1.878012279
H 4.068118856 3.475489783 -1.306667569
H -4.466940812 1.306205550 0.519057443
H 5.211234031 -1.518895322 0.194321974

