10

C 2.512580460 3.642205050 0.262649160
C 0.736131795 -2.973909529 0.629758828
N 0.254662176 -2.936525927 -1.671645248
C -1.523336197 -1.522219671 0.114036052
C -1.531238314 1.270739114 0.079061946
N 0.503002783 2.536919566 0.029027592
H 3.466961827 4.150183823 -1.500785358
H 2.164580421 -3.683453482 1.908149839
H -3.369130460 -2.376116080 0.372996316
H -3.307011402 2.289144345 0.073330180

