10

C 2.285941656 1.955305630 0.186317207
C 1.208036565 -1.945853183 0.579016866
N 0.644394549 -2.201012999 -1.736935191
C -1.431748201 -1.248297652 -0.072280701
C -1.973067128 1.489394259 0.074609676
N 0.040531810 2.804331837 0.015012608
H 3.530099013 2.310548120 -1.428433773
H 2.536358695 -2.844838438 1.847342686
H -3.005314774 -2.540726381 0.153104004
H -3.824506098 2.289985859 0.394357874

