18

C -2.589976933 1.360364610 -2.584550660
C -1.117051675 0.037036062 -0.530603670
C -2.368554435 -2.251870045 0.624852286
C 0.636007113 1.387660097 0.864320289
C 4.367892971 0.647437537 -0.359397657
O 4.475962648 -0.954627164 -2.103397061
H -1.438719307 2.776544095 -3.538356965
H -4.214714663 2.318194028 -1.736022983
H -3.307012762 0.039554519 -3.994517539
H 0.435682008 -1.680455718 -2.555152966
H -3.965834066 -1.632073325 1.783340459
H -1.065668756 -3.287399654 1.837436174
H -3.096087371 -3.542990403 -0.807201408
H 0.777643012 3.398940946 0.517098610
H 0.970873801 0.797552845 2.794450894
H 4.917440219 0.081839371 1.555527568
H 4.670766199 2.645444987 -0.815573292
H 1.996438827 -1.725639769 -2.743642319

