16

C -1.427398373 2.203777933 -1.114211474
C -0.566337521 0.674554597 1.177421565
C -1.811723918 -1.912381257 1.389347755
O -0.680334210 -3.466341487 3.238380101
N 2.151922317 0.489186467 0.668823076
C 2.772695932 0.661154643 -1.769930754
O 2.004159114 -0.740079527 -3.692082425
H -1.093587796 4.216983449 -0.804075877
H -3.425410208 1.948162371 -1.597325173
H 0.166169004 -0.600178283 -3.610083051
H -0.754200411 1.564611652 3.049312190
H -3.773213885 -1.645517309 1.963287966
H -1.827359966 -2.854317285 -0.459807764
H 1.029921752 -3.787225297 2.722944092
H 3.383112544 1.257850293 1.900940496
H 4.665560589 1.399457733 -2.111374785

