10

N 1.175528022 -1.299193665 -0.645707927
C 2.877681084 -0.862186732 1.287063324
O 2.562240025 0.588407198 2.992081173
C -2.965892611 1.614953238 0.008447718
C -1.101806083 -0.130704419 -0.868229887
N -2.965504499 -0.106627683 -2.316695626
H 1.632475534 -2.566052906 -1.993668847
H 4.592416283 -2.027954451 1.069533624
H -2.731094840 3.626450914 -0.321816787
H -4.221167794 1.100424712 1.547640796

