10

N 1.097335652 -1.448851149 -0.999298891
C 2.262815528 -0.624622949 1.047273557
O 1.268283131 0.981510634 2.458191024
C -1.923580058 1.489087764 0.652311878
C -1.405338183 -0.278876673 -1.347379659
N -3.121026673 -0.426903588 -2.879563308
H 1.837061007 -2.745146106 -2.176861959
H 4.138911153 -1.376435918 1.501112753
H -1.765990562 3.490885816 0.254425393
H -3.238399906 0.943713655 2.123229188

