15

C -2.451496065 -1.803430024 0.159014179
C -0.215462982 -0.050495447 0.014618846
C 2.047675481 -1.112845787 -1.393702270
O 4.193641949 0.424132097 -1.165098057
C -0.613159436 2.706804546 0.081598544
N 0.518160485 1.396328063 2.248624970
H -4.045157833 -0.910626970 1.117691537
H -3.077053029 -2.343605515 -1.732736390
H -1.965040592 -3.531504572 1.180336260
H 2.422513959 -3.027201657 -0.671688581
H 1.606993352 -1.282300250 -3.405540777
H 4.192357067 1.019585876 0.561747396
H -2.537167630 3.389518810 0.263218043
H 0.663565045 3.946518986 -0.929761070
H -0.740369789 1.179121865 3.671677370

