14

C -3.829173835 0.690228420 0.241849247
C -1.472855357 -0.814876134 -0.206394413
C 2.912476706 -0.872783144 2.281605736
C 3.559959086 -0.592689393 -0.397927397
C 0.905598919 0.430156865 -1.023073025
O -0.578751208 -0.969023891 -2.724005702
H -4.016870069 1.127415916 2.248867063
H -5.486209988 -0.392788759 -0.336439243
H -3.797785673 2.452311444 -0.826342482
H 2.929114799 1.060871063 3.089718220
H -1.327591014 -2.588840471 0.810845122
H 4.953271335 0.833672182 -0.934920722
H 3.882063905 -2.360188051 -1.403044093
H 0.831196433 2.466142217 -1.274418127

