14

C -3.658431089 0.774026151 0.418066964
C -1.170070644 -0.405191466 -0.172312674
C 2.214244691 -1.636590394 1.954968390
C 3.349163803 -0.432171162 -0.403376044
C 0.963872158 0.529274115 -1.647371792
O -0.659737330 -1.403831070 -2.552888205
H -3.559955665 1.787128698 2.209680833
H -5.136716612 -0.655778334 0.555367661
H -4.162172604 2.107302388 -1.073169287
H 1.976579903 -0.090433505 3.337220223
H -0.420609798 -1.913797380 1.330883370
H 4.603263632 1.149524861 0.033364740
H 4.354503184 -1.767527325 -1.611248977
H 0.904866196 2.271736264 -2.726310885

