14

C 3.862643171 0.547930587 0.179305529
C 0.993969448 0.667861205 0.312723123
H 0.403568399 2.646040062 0.416779040
C -0.398714222 -0.593534233 -1.897662143
H -0.793631701 0.644058952 -3.496339302
H 0.654005658 -2.213234670 -2.662883002
C -2.796393116 -1.715775191 -0.849780018
O -2.549883824 -1.739002306 1.586642098
C -0.138539904 -0.748163095 2.536592322
H -0.568689134 0.400470911 4.187407402
H 0.990978446 -2.378388589 3.112323048
H 4.562416597 1.538841513 -1.488166806
H 4.740338167 1.413657929 1.834083781
H 4.510673005 -1.410376986 0.067409895

