12

N 4.963487365 -2.758883546 -2.467648234
C 3.628089060 -1.523246397 -1.287720079
C 1.897023019 -0.011298578 0.207321834
C 1.112456901 2.568178962 -0.681435486
C -2.841048592 -0.158546661 0.792614291
N -0.657686826 0.286498959 -0.834167271
H 1.861744685 -0.602587136 2.177884036
H -2.407619270 0.546098177 2.676023761
H 0.455644395 3.618327057 0.978740579
H -4.448220070 0.887106021 0.043590067
H -3.290727121 -2.168664157 0.883345201
H -0.879586876 -0.358318322 -2.619283713

