12

N 5.436672046 -0.840274942 -2.039219051
C 3.664595035 -0.654688246 -0.803861790
C 1.382632273 -0.522877619 0.779587748
C 0.253638625 2.164591797 0.751454204
C -2.524631451 0.290161248 -0.617597023
N -0.800093808 -1.820698965 -0.332694297
H 1.882853739 -1.346780767 2.614166977
H -2.092466431 1.485340570 1.297994180
H -0.012126921 3.038509174 2.622125389
H -2.638377695 1.248643982 -2.428207420
H -4.445048221 -0.138663190 0.059860250
H -0.432330485 -2.726622765 -1.970545194

