12

C -2.933156810 -0.554470684 -0.116599900
N -0.292632840 0.145438595 -0.114493611
C 1.772286902 -1.364409833 -0.705637927
C 4.063902348 0.085510315 -0.450512258
N 3.194246379 2.417312072 0.525300739
C 0.741463714 2.374128901 0.586201283
H -3.494504396 -1.259558492 -1.969716172
H -3.314224826 -2.003325366 1.299987747
H -4.069291828 1.104773123 0.319033958
H 1.525343483 -3.153910629 -1.663803527
H 3.194554008 -1.820369888 1.109574426
H -0.450405734 3.937874585 1.164689517

