19

C 4.526871548 -0.037378726 -0.574670628
C 2.047586456 -0.600356258 0.798814691
O 2.472694672 -1.246050390 3.362767374
C 0.481737979 1.762926465 0.590428204
C -1.056052469 1.907773916 -1.736449966
C -2.937749185 0.921474413 0.202523952
C -4.046416145 -1.682705513 -0.169271877
H 4.230704901 0.193698288 -2.603508752
H 5.830933733 -1.601234582 -0.266401854
H 5.379602544 1.690661430 0.163031870
H 1.210412782 -2.296926313 -0.051793047
H 2.615932303 0.332925335 4.255708114
H -1.708579473 1.032968500 2.083500720
H -0.680717995 0.535257989 -3.231453046
H -1.462885408 3.771704410 -2.491354357
H -4.300129962 2.367963612 0.728008410
H -2.589300241 -3.088831806 -0.545612819
H -5.331946032 -1.673399160 -1.782699766
H -5.099860830 -2.288321105 1.494829546

