14

O 5.094961734 -1.369729318 -0.896329321
C 2.534911675 -0.693304913 -1.235544174
C 1.398814924 0.594279182 1.066959647
C -1.349540240 1.328521307 0.619229860
C -3.066889270 -0.903592483 0.464313513
O -4.977985041 -0.306298848 -0.993733874
H 5.194084407 -2.579899780 0.448698480
H 1.386619576 -2.350019775 -1.738302578
H 2.501353162 0.588361901 -2.855001687
H 2.528634288 2.257207199 1.536299643
H -1.572794317 2.621308933 -0.988368073
H -2.068977608 2.332199506 2.292457923
H 1.486494852 -0.694036256 2.683556133
H -6.129250794 -1.715155946 -1.031218293

