17

C -2.720107405 0.074457931 0.879504012
C -1.016525880 -1.431936853 -0.900632322
C -1.505558183 -0.693324887 -3.706289083
C 1.763082519 -1.156616248 -0.864077837
C 2.675422903 1.369076247 0.061805288
C 3.090438243 0.783703307 2.734727026
C 3.379995402 0.173564334 4.894498320
H -4.696447142 -0.407661433 0.531643227
H -2.294823766 -0.354326804 2.849908100
H -2.533376783 2.112652882 0.617542958
H -1.478566015 -3.441111810 -0.755346265
H -3.501222070 -1.019333692 -4.102825680
H -1.108498038 1.304411709 -4.040572092
H -0.378416749 -1.820116211 -5.008930289
H 1.360891938 2.964892644 -0.094764625
H 4.480124750 1.879003214 -0.795808817
H 3.668280984 -0.332147070 6.819893876

