16

C -1.975340034 1.502997415 1.598630634
C -1.045249226 -1.067752160 0.927710132
O -3.344581840 -1.958052158 -1.722586217
C 1.085131933 -1.539368123 -0.642302603
C 2.598952868 0.599082526 -1.694883172
O 3.996532024 1.801265040 0.280257666
H -3.899191665 1.450466373 2.321161918
H -0.713345099 2.260545211 3.048863172
H -1.901154357 2.770635412 -0.019674071
H -1.583261529 -2.560667621 2.226932653
H -4.243662035 -3.527574547 -1.506201937
H -1.015614673 -2.175139681 -2.101183738
H 2.141900854 -3.240816828 -0.193728996
H 1.365645260 1.982601042 -2.626552224
H 3.892531930 -0.132049488 -3.137165161
H 4.971456793 3.148030897 -0.440262364

