15

C -3.938214982 0.166768368 0.539914917
C -2.950779640 -0.424444450 -1.832590633
N 0.682969169 -1.007253447 -1.658685846
C 1.738267316 -0.392546213 0.464918490
O 0.481847640 -0.612077813 2.539519961
C 4.364974100 0.649417063 0.690371680
H -5.150753157 -1.215676879 1.445732609
H -4.323914376 2.130273445 0.978542064
H -1.569019967 -0.374361340 1.954223951
H -3.326652081 -2.261132462 -2.647924629
H -2.683373454 1.055582286 -3.224304212
H 1.721059243 -0.557728855 -3.199411435
H 5.376216684 0.578347355 -1.100988304
H 5.403053025 -0.423932334 2.108845708
H 4.253620949 2.602969840 1.343057421

