9

N 3.586771446 -0.326578444 0.220289853
C 1.142213057 -0.838638363 0.428601431
N -0.504974146 -2.325610863 0.928823747
O -2.854017159 -2.307902182 0.963744091
C -3.310253454 1.418216421 -0.195763589
N -1.298860223 2.258975907 -0.495587574
H 4.298457479 0.903919330 1.487270358
H 4.249191714 -0.085015434 -1.548877187
H -5.325477688 1.293780261 -0.118852529

