16

C 3.727028733 0.347289766 0.715199922
C 1.081414313 0.088183881 -0.246673737
C -0.285883059 2.153844717 -1.139726197
C -2.836220644 2.478544527 -0.847908169
C -2.370561173 -2.021207920 0.989496050
C -0.048371509 -2.516260777 -0.385817900
H 4.955782063 -1.140792191 -0.032003098
H 4.512361210 2.192984743 0.237334351
H 3.782453720 0.193062944 2.778111528
H 0.781149814 3.562774343 -2.206401836
H -3.742916341 2.019654622 0.913107405
H -3.911598435 3.650953877 -2.146936351
H -2.269386276 -1.731498487 3.010802917
H -4.217338850 -2.271429750 0.163315272
H -0.330272613 -3.154761459 -2.326782739
H 1.209531829 -3.849012822 0.571702435

