17

C -5.080048261 -0.922259689 1.292605380
C -3.072245150 0.059081664 -0.336840280
C -0.579710679 -0.944346071 0.339576093
C 1.724401394 0.587276896 -0.397041040
C 4.223006630 -0.702212137 0.038415600
C 1.507654720 2.629532832 -2.236302633
O 1.617245797 3.151166935 0.401616993
H -6.932210409 -0.992522333 0.394656772
H -5.186789517 0.669945139 2.644318994
H -4.689397727 -2.635560416 2.402586494
H -0.391831443 -1.607573309 2.307540829
H -0.636261678 -2.695219750 -0.811188882
H 4.386504695 -2.396294500 -1.130233498
H 4.410483656 -1.267829805 2.015761881
H 5.777737300 0.568077657 -0.417494037
H -0.311481119 2.985128701 -3.110097499
H 3.174706101 3.190771135 -3.297413879

