17

C -4.342552330 0.200276916 1.649617448
C -2.330491666 0.298695705 -0.298637256
C -0.524834922 -1.923167550 -0.471129718
C 1.550747449 0.031911559 -0.515525186
C 4.213996718 -0.405139026 0.309162595
C 0.819723282 1.936764280 -2.367913270
O 0.092044572 1.899393661 0.918798183
H -5.734227774 -1.214419039 1.065905482
H -5.327894535 1.998667078 1.863778465
H -3.584888221 -0.366765832 3.509304750
H -0.406743253 -3.115134923 1.231730234
H -0.668619194 -3.108947185 -2.155324731
H 5.176077283 -1.643595212 -1.030709314
H 4.226609241 -1.308179577 2.161005286
H 5.248034274 1.373752337 0.430360634
H -0.328524427 1.604934703 -4.015496730
H 1.900983242 3.679137291 -2.321432603

