17

O 4.267707119 -1.455695945 1.777788746
C 2.844987613 -1.467259368 -0.381004635
C 0.665438955 -2.825261480 -0.634826279
C -3.106202603 -0.993328528 0.412381572
C -3.275342861 1.574304359 0.133098097
C 0.065586309 3.657995035 -0.536099938
C 2.172638251 2.676433113 -0.598525586
H 3.198601990 -1.836526536 3.192635331
H 3.973745385 -1.045499218 -2.026276884
H 0.143532504 -4.171701869 0.810108998
H 0.019801930 -3.216108791 -2.529337153
H -3.000234510 -1.790649088 2.291376981
H -3.828988434 -2.233438942 -1.038370056
H -4.129538735 2.330918971 -1.565217951
H -3.463216843 2.721830684 1.815023550
H -0.999630425 5.375327133 -0.558269770
H 4.180070937 2.874918966 -0.659513699

