12

O -3.057261021 0.657282481 -1.648433364
C -2.047713446 -0.969579508 0.173704495
C 0.759813049 2.278596045 2.161259643
N 0.903978063 4.238652315 3.073261162
O 1.965125706 -1.155974345 -3.247460746
C 2.508656916 -0.321818602 -1.216138652
C 0.636913482 -0.217307620 0.979717454
H -2.225714932 0.316294554 -3.226522731
H -3.286332488 -0.891147068 1.817957010
H -1.980543320 -2.927522270 -0.492664904
H 4.425264451 0.401799616 -0.805982875
H 1.327466594 -1.582036249 2.382578792

