11

C 0.439128850 -2.474664352 0.751659259
H 1.990339452 -2.693992127 -0.596593170
H 0.581420011 -3.905905106 2.232075996
O 0.363150351 0.021799144 1.857114913
C -2.178805731 0.319044710 1.040621211
H -3.503635081 1.233199402 2.301036392
C -2.339545873 0.267466261 -1.763166631
H -0.734260097 0.905112806 -2.866742064
H -4.179440411 0.694457570 -2.551731485
C -2.207912351 -2.176705943 -0.307922897
H -3.643849565 -3.622422490 -0.403367106

