15

O 4.651384223 1.881631143 1.488040610
C 4.005758102 0.705505136 -0.659802261
C 0.739856993 -1.380878494 0.854643871
O -0.389070628 0.704217741 2.159820995
C -2.749382400 0.150500302 0.965540370
C -2.594991454 0.496201754 -1.805975334
C -1.623268467 -1.914563381 -0.634885711
H 3.400020962 3.119603388 1.979838036
H 2.672190451 1.819062783 -1.794809055
H 2.999279121 -1.356187635 -0.330941519
H 1.304360044 -2.846788389 2.199421150
H -4.434499392 0.228662379 2.118156729
H -1.308476170 1.880789043 -2.592168524
H -4.366931667 0.278178740 -2.806280901
H -2.336461576 -3.762253341 -1.118348802

