13

O -1.336621751 -1.306299923 1.168999434
C 0.655714915 0.314447404 0.460398492
N 2.716802482 -0.734343528 -0.536660336
C 3.621012527 -3.052985402 -0.307269581
C -2.937839665 0.354576758 -0.191677226
C -2.813821985 2.952118587 0.748300837
N -0.869106644 2.030076235 -1.048051784
H 3.763011972 0.535596591 -1.512258282
H 2.536193533 -4.417425565 0.742341132
H 5.525866628 -3.407661635 -0.925450303
H -4.387585202 -0.481165467 -1.373185192
H -4.064870096 4.334490380 -0.094181134
H -2.257761928 3.270569016 2.693595700

