13

O -0.996816849 -1.321675529 1.775358860
C 0.445297804 -0.085555309 0.307590438
N 2.643152466 -0.872462042 -0.610505996
C 3.913316253 -2.981690967 -0.036776943
C -3.398771268 0.582998197 -0.547818829
C -2.848866843 2.911800600 0.713827962
N -0.934365842 1.725897301 -1.082263820
H 3.391643788 0.314952962 -1.910259926
H 3.225730615 -4.145939554 1.481237313
H 5.605893373 -3.385383257 -1.086104273
H -4.865089420 0.147791871 -1.925029648
H -3.715204717 4.653538964 0.057539326
H -2.314920795 2.847720213 2.688109183

