14

C -2.932708076 2.133828530 -2.339077335
C -0.493968645 -2.603802737 1.541321193
C 0.917649948 -0.539740193 0.190202938
C 3.136890187 0.687612642 1.320356386
O 3.398478814 -1.116192606 -0.628627449
C -0.574322654 0.964995392 -1.609734400
N -0.372243921 2.118503777 -3.651506018
H -2.104688707 -1.823883701 2.564703925
H -4.419313987 1.028911920 -3.222221431
H -3.525114785 3.907914206 -1.493997556
H 0.751957212 -3.560933107 2.870984934
H -1.196435990 -3.993211303 0.188810550
H 3.597060891 2.618258801 0.798259905
H 3.747718570 0.079240204 3.184459488

