14

C -5.121172859 1.894017012 0.016108517
C -0.557256386 -1.814992351 1.017699343
C 1.615028392 -0.477856878 -0.237058357
C 3.866408658 0.340698893 1.152967545
O 3.924536898 -1.808518073 -0.440168010
C 0.923862328 0.948694558 -2.493707992
N 0.279883349 2.066696557 -4.235745387
H -2.000965458 -0.446447967 1.610211518
H -6.216168236 0.373492029 -0.923971006
H -4.353985664 2.964504116 -1.611331388
H 0.111754397 -2.811964006 2.689808708
H -1.400409683 -3.179794207 -0.276244020
H 4.936267995 1.959643364 0.489854636
H 3.951114744 -0.046103610 3.166514082

