11

C -3.076852171 0.721799791 -1.385529129
C -1.698407738 -0.818702905 0.605411237
N 0.991043811 -0.937810548 0.060234283
C 2.262505764 -2.773134159 -0.405812336
N 3.740412416 -4.533807920 -0.654241723
H 4.079736968 -5.169387274 -2.421122043
H -2.508057665 -2.716452694 0.742394555
H -1.905293235 0.079293097 2.451507252
H -2.937318592 -0.175533277 -3.236858740
H -2.267293291 2.611956943 -1.523347441
H -5.073503100 0.896168732 -0.898784151

