14

C -3.393114826 0.771423394 -1.137954635
C -1.948336868 -0.944023873 0.647037765
N 0.723952113 -0.197455272 0.819135860
C 2.503633778 -1.424344557 -0.232627365
N 3.811888151 -3.130632529 -0.878064362
C 4.653816187 2.630200170 -0.816635658
N 3.856106948 4.019355267 0.695084354
H -2.647654946 0.639982114 -3.054354490
H -3.264477862 2.737879372 -0.534921146
H -5.381165064 0.229099208 -1.165684798
H -2.014458764 -2.911883294 0.041634578
H -2.708369352 -0.851952542 2.560213199
H 1.298450360 1.625170306 1.285422531
H 4.804470728 -3.175944401 -2.506342342

