13

C -2.477203124 -1.496352665 -0.387474566
C -0.987773527 -0.171825068 1.660984831
C -2.095454485 -0.315774804 4.152817666
N -2.987487986 -0.439454280 6.127388809
C 0.431731158 2.224695803 1.049403184
H 0.287024227 2.889664933 -0.879085192
H 0.477284102 3.694947174 2.467197326
C 1.862821602 -0.154095279 1.550930186
H 2.885197243 -0.309910152 3.312780301
H 2.710301446 -1.134530149 -0.030907453
H -1.502858255 -1.312052023 -2.194692980
H -4.357902877 -0.673944631 -0.578579942
H -2.686027649 -3.503820841 0.032025378

