15

C -3.567757664 0.082032482 0.964005704
N -0.881216973 0.083802343 0.546177054
C 0.658796624 -1.905532928 0.020401578
C 2.806691217 -0.010195224 -0.468797720
O 4.546102516 0.371322850 1.496895414
C 0.568428125 1.840321163 -0.637383948
H -4.053890636 -1.364571329 2.344664555
H -4.167640716 1.925210211 1.652710778
H -4.519528148 -0.329359440 -0.824643826
H 0.036028555 -1.389095949 -3.230923186
H 0.575973103 -3.742155046 0.911757687
H 3.901459676 -0.285087711 -2.182747870
H 3.625657493 0.565730409 3.048786544
H 0.378929168 3.864886824 -0.463115994
H -0.004525535 0.215858842 -3.526613205

