12

C -0.539787285 -3.726307198 -1.327049702
O 0.120751799 -1.188937386 -1.984062783
C 0.067275743 0.467965560 -0.123630683
N -0.525504981 -0.032422881 2.151931180
O -0.281803651 2.479804445 3.436028125
C 0.403788628 4.301694618 2.006004563
C 0.726932211 3.176671624 -0.566505272
H 0.786384658 -4.464659912 0.067082178
H -2.446885775 -3.785109106 -0.548267526
H -0.433892967 -4.802228266 -3.072480894
H 2.661978844 3.437850067 -1.239947028
H -0.511635884 4.102285086 -1.935191461

