15

C -2.131512727 0.621588465 -3.502384498
C -0.399053220 0.245972970 2.945714513
C -0.637655143 0.256782486 -1.538490289
C 0.996980991 -1.987384279 -0.795017456
C 1.979106032 -0.842250064 1.689487967
O 2.640407261 1.705715120 0.907143486
C -0.084914182 2.003649398 0.648381077
H -2.376341468 -0.805751573 -4.950605423
H -3.166721366 2.374006031 -3.731796172
H 0.026433924 1.210143912 4.710807851
H -2.092426426 -0.919862666 3.082089414
H -0.070060273 -3.733649351 -0.538686822
H 2.531958638 -2.321975256 -2.127931583
H 3.461546439 -1.822554147 2.721134811
H -0.746424906 3.947752354 0.583071367

