11

N -3.655412781 -1.115342966 -0.557304819
C -1.368154703 -0.447392736 -0.219205509
C 1.015502707 -1.748233316 -0.463603751
N 2.784136806 -0.066074879 0.154781136
N 2.180531750 2.190398086 0.794283543
C -0.570651086 2.186028264 0.614611331
H -1.389514372 2.685193543 2.443770807
H -3.762393824 -2.951395067 -1.114624190
H 1.484016987 -3.653268489 -0.999830187
H 4.653333475 -0.480969692 0.149085558
H -1.178098616 3.621221682 -0.741197886

