13

O 2.695746001 -3.228406354 0.904320311
C 2.688491777 -1.518812060 -0.559690882
N 2.277099930 1.048670499 0.218736101
C -0.663038851 2.018527363 0.108096152
C -2.318152473 0.210640477 1.551121539
C -2.361694389 0.161314146 -1.281333825
H 2.826904464 -1.721392798 -2.622017637
H 2.788463977 1.302105374 2.051032542
H 3.184866932 2.306969206 -0.901530830
H -1.566816490 -1.483072615 2.439442409
H -3.855140788 1.065555448 2.600855860
H -3.907039149 1.020134539 -2.313888740
H -1.725731270 -1.595438867 -2.128382755

