13

O 4.364354345 -3.448393756 -0.472100602
C 3.330513831 -1.516853775 -1.079391229
N 2.496042049 0.283867515 0.582424382
C -0.666774878 1.873528942 -0.255315549
C -2.588913622 0.951270613 1.583005490
C -2.509049393 -0.101129941 -1.050109885
H 2.940690147 -1.010411860 -3.063258104
H 2.737413177 -0.047641866 2.446941692
H 1.816482816 2.237154389 -0.144221422
H -2.058811297 -0.318409082 3.095686882
H -4.013858980 2.325936198 2.108511491
H -3.874341785 0.507288701 -2.450950765
H -1.929254716 -2.052138051 -1.248757914

