11

C -3.432854198 -0.181449613 0.206698168
C -0.753133453 -0.890073382 0.301363204
N 0.729872134 -2.525632477 0.735184872
O 2.981304065 -2.980707063 0.777119803
C 4.086238420 0.960849106 -0.468167591
C 2.031398344 1.979053478 -0.690607688
H -4.604526064 -1.800604732 0.704374909
H -3.821168293 1.347183808 1.532658065
H -3.944726071 0.445435679 -1.688203312
H 6.002153862 0.357630310 -0.366247726
H 0.760754567 3.493238696 -1.099044702

