29

C     0.14719   3.82139  -0.42009
O    -0.00312   2.56058  -1.11061
C    -0.95313   1.89090  -0.46463
C    -1.76319   1.46576   0.26944
F    -2.84802   1.13797   0.98688
C    -1.64022  -1.32723  -0.14624
C    -3.09523  -1.68054  -0.22301
C    -1.03647  -1.25085   1.13243
N    -0.65436  -1.33731   2.23522
N    -1.01564  -0.87483  -1.24857
N     0.17142  -0.42337  -1.55221
C     1.21902  -0.60334  -0.64092
C     2.14808   0.42766  -0.38260
C     3.29995   0.16105   0.36209
C     3.55992  -1.12708   0.84175
C     2.65180  -2.15567   0.56501
C     1.49608  -1.90004  -0.16246
H     0.82154   4.40624  -0.98581
H    -0.85332   4.31551  -0.32381
H     0.52378   3.62171   0.61011
H    -3.69096  -1.14643   0.56778
H    -3.16215  -2.73090  -0.04553
H    -3.52244  -1.40037  -1.19187
H    -1.60818  -0.93999  -2.08958
H     1.97048   1.44208  -0.75695
H     4.01637   0.96682   0.56708
H     4.46076  -1.34272   1.41546
H     2.83327  -3.16968   0.89936
H     0.79587  -2.69617  -0.40710
29

C     0.14317   3.81892  -0.41685
O    -0.00715   2.55919  -1.10893
C    -0.94429   1.87140  -0.47013
C    -1.76055   1.43774   0.26124
F    -2.84359   1.14628   0.98440
C    -1.64452  -1.30502  -0.14388
C    -3.09466  -1.67513  -0.22104
C    -1.03690  -1.24873   1.13401
N    -0.65425  -1.33943   2.23564
N    -1.01320  -0.88287  -1.25098
N     0.16603  -0.40946  -1.54358
C     1.21860  -0.59988  -0.64047
C     2.14936   0.42918  -0.38193
C     3.30079   0.16112   0.36228
C     3.55958  -1.12755   0.84141
C     2.65069  -2.15491   0.56345
C     1.49489  -1.89782  -0.16436
H     0.82011   4.40570  -0.98502
H    -0.85446   4.31480  -0.32248
H     0.52307   3.62088   0.61084
H    -3.69201  -1.14688   0.56861
H    -3.15827  -2.72945  -0.04521
H    -3.52284  -1.39971  -1.19125
H    -1.60745  -0.94143  -2.09012
H     1.97113   1.44271  -0.75638
H     4.01681   0.96665   0.56723
H     4.46056  -1.34316   1.41541
H     2.83260  -3.16958   0.89878
H     0.79515  -2.69518  -0.40764
29

C     0.13915   3.81646  -0.41362
O    -0.01119   2.55780  -1.10726
C    -0.93546   1.85191  -0.47563
C    -1.75791   1.40973   0.25304
F    -2.83917   1.15458   0.98193
C    -1.64881  -1.28281  -0.14152
C    -3.09409  -1.66972  -0.21907
C    -1.03734  -1.24662   1.13559
N    -0.65414  -1.34154   2.23607
N    -1.01077  -0.89092  -1.25338
N     0.16063  -0.39555  -1.53494
C     1.21819  -0.59642  -0.64002
C     2.15065   0.43070  -0.38127
C     3.30164   0.16120   0.36247
C     3.55925  -1.12801   0.84107
C     2.64957  -2.15416   0.56189
C     1.49370  -1.89560  -0.16626
H     0.81868   4.40516  -0.98422
H    -0.85559   4.31409  -0.32116
H     0.52236   3.62004   0.61156
H    -3.69305  -1.14734   0.56944
H    -3.15440  -2.72800  -0.04489
H    -3.52325  -1.39905  -1.19062
H    -1.60672  -0.94288  -2.09065
H     1.97178   1.44335  -0.75582
H     4.01724   0.96647   0.56738
H     4.46037  -1.34360   1.41536
H     2.83192  -3.16947   0.89819
H     0.79443  -2.69418  -0.40818
29

C     0.13513   3.81400  -0.41038
O    -0.01523   2.55640  -1.10559
C    -0.92663   1.83241  -0.48112
C    -1.75527   1.38171   0.24484
F    -2.83475   1.16289   0.97946
C    -1.65311  -1.26060  -0.13915
C    -3.09352  -1.66431  -0.21710
C    -1.03778  -1.24451   1.13717
N    -0.65403  -1.34366   2.23649
N    -1.00833  -0.89896  -1.25579
N     0.15523  -0.38164  -1.52630
C     1.21777  -0.59296  -0.63958
C     2.15194   0.43223  -0.38061
C     3.30248   0.16128   0.36266
C     3.55892  -1.12848   0.84073
C     2.64846  -2.15340   0.56033
C     1.49251  -1.89338  -0.16816
H     0.81725   4.40462  -0.98343
H    -0.85673   4.31338  -0.31983
H     0.52164   3.61921   0.61229
H    -3.69409  -1.14780   0.57026
H    -3.15052  -2.72655  -0.04456
H    -3.52365  -1.39839  -1.19000
H    -1.60599  -0.94433  -2.09118
H     1.97243   1.44398  -0.75525
H     4.01767   0.96630   0.56753
H     4.46017  -1.34403   1.41530
H     2.83125  -3.16937   0.89761
H     0.79371  -2.69319  -0.40872
29

C     0.13111   3.81153  -0.40715
O    -0.01927   2.55501  -1.10391
C    -0.91780   1.81291  -0.48662
C    -1.75263   1.35369   0.23664
F    -2.83032   1.17120   0.97698
C    -1.65741  -1.23839  -0.13679
C    -3.09295  -1.65890  -0.21513
C    -1.03822  -1.24240   1.13875
N    -0.65392  -1.34577   2.23691
N    -1.00590  -0.90700  -1.25819
N     0.14983  -0.36772  -1.51767
C     1.21735  -0.58950  -0.63913
C     2.15323   0.43375  -0.37994
C     3.30332   0.16136   0.36284
C     3.55858  -1.12895   0.84039
C     2.64734  -2.15264   0.55877
C     1.49132  -1.89117  -0.17006
H     0.81581   4.40408  -0.98264
H    -0.85787   4.31268  -0.31851
H     0.52093   3.61838   0.61301
H    -3.69513  -1.14826   0.57109
H    -3.14664  -2.72511  -0.04424
H    -3.52406  -1.39774  -1.18937
H    -1.60526  -0.94577  -2.09172
H     1.97309   1.44461  -0.75469
H     4.01811   0.96613   0.56767
H     4.45997  -1.34447   1.41525
H     2.83057  -3.16926   0.89703
H     0.79299  -2.69220  -0.40927
29

C     0.12709   3.80907  -0.40391
O    -0.02330   2.55361  -1.10224
C    -0.90897   1.79342  -0.49212
C    -1.74999   1.32568   0.22844
F    -2.82590   1.17950   0.97451
C    -1.66170  -1.21618  -0.13443
C    -3.09238  -1.65348  -0.21316
C    -1.03866  -1.24029   1.14033
N    -0.65381  -1.34789   2.23734
N    -1.00347  -0.91504  -1.26060
N     0.14443  -0.35381  -1.50903
C     1.21694  -0.58604  -0.63868
C     2.15452   0.43527  -0.37928
C     3.30416   0.16143   0.36303
C     3.55825  -1.12942   0.84005
C     2.64622  -2.15188   0.55721
C     1.49013  -1.88895  -0.17196
H     0.81438   4.40354  -0.98185
H    -0.85900   4.31197  -0.31718
H     0.52022   3.61755   0.61374
H    -3.69617  -1.14872   0.57192
H    -3.14276  -2.72366  -0.04392
H    -3.52447  -1.39708  -1.18875
H    -1.60453  -0.94722  -2.09225
H     1.97374   1.44525  -0.75412
H     4.01854   0.96596   0.56782
H     4.45977  -1.34491   1.41520
H     2.82990  -3.16916   0.89645
H     0.79227  -2.69121  -0.40981
29

C     0.12307   3.80660  -0.40068
O    -0.02734   2.55222  -1.10057
C    -0.90013   1.77392  -0.49762
C    -1.74735   1.29766   0.22024
F    -2.82148   1.18781   0.97204
C    -1.66600  -1.19396  -0.13207
C    -3.09181  -1.64807  -0.21119
C    -1.03910  -1.23818   1.14191
N    -0.65370  -1.35000   2.23776
N    -1.00103  -0.92308  -1.26301
N     0.13904  -0.33990  -1.50039
C     1.21652  -0.58258  -0.63824
C     2.15581   0.43679  -0.37862
C     3.30501   0.16151   0.36322
C     3.55792  -1.12989   0.83971
C     2.64511  -2.15113   0.55566
C     1.48894  -1.88673  -0.17387
H     0.81295   4.40300  -0.98106
H    -0.86014   4.31126  -0.31586
H     0.51951   3.61671   0.61447
H    -3.69722  -1.14918   0.57275
H    -3.13888  -2.72221  -0.04360
H    -3.52487  -1.39642  -1.18813
H    -1.60381  -0.94867  -2.09279
H     1.97439   1.44588  -0.75355
H     4.01897   0.96579   0.56797
H     4.45957  -1.34534   1.41514
H     2.82923  -3.16905   0.89586
H     0.79155  -2.69022  -0.41035
29

C     0.11905   3.80414  -0.39745
O    -0.03138   2.55083  -1.09889
C    -0.89130   1.75442  -0.50312
C    -1.74471   1.26964   0.21205
F    -2.81705   1.19612   0.96956
C    -1.67029  -1.17175  -0.12971
C    -3.09124  -1.64266  -0.20922
C    -1.03953  -1.23606   1.14349
N    -0.65359  -1.35212   2.23818
N    -0.99860  -0.93112  -1.26541
N     0.13364  -0.32599  -1.49176
C     1.21611  -0.57912  -0.63779
C     2.15710   0.43832  -0.37795
C     3.30585   0.16159   0.36340
C     3.55758  -1.13035   0.83937
C     2.64399  -2.15037   0.55410
C     1.48774  -1.88451  -0.17577
H     0.81152   4.40246  -0.98027
H    -0.86127   4.31055  -0.31453
H     0.51879   3.61588   0.61519
H    -3.69826  -1.14964   0.57358
H    -3.13500  -2.72076  -0.04327
H    -3.52528  -1.39576  -1.18750
H    -1.60308  -0.95011  -2.09332
H     1.97504   1.44652  -0.75299
H     4.01941   0.96561   0.56812
H     4.45937  -1.34578   1.41509
H     2.82855  -3.16895   0.89528
H     0.79083  -2.68923  -0.41089
29

C     0.11503   3.80168  -0.39421
O    -0.03542   2.54943  -1.09722
C    -0.88247   1.73493  -0.50862
C    -1.74207   1.24163   0.20385
F    -2.81263   1.20442   0.96709
C    -1.67459  -1.14954  -0.12735
C    -3.09067  -1.63725  -0.20725
C    -1.03997  -1.23395   1.14507
N    -0.65349  -1.35424   2.23860
N    -0.99617  -0.93916  -1.26782
N     0.12824  -0.31207  -1.48312
C     1.21569  -0.57566  -0.63734
C     2.15839   0.43984  -0.37729
C     3.30669   0.16167   0.36359
C     3.55725  -1.13082   0.83904
C     2.64288  -2.14961   0.55254
C     1.48655  -1.88229  -0.17767
H     0.81009   4.40192  -0.97948
H    -0.86241   4.30985  -0.31321
H     0.51808   3.61505   0.61592
H    -3.69930  -1.15009   0.57440
H    -3.13112  -2.71931  -0.04295
H    -3.52568  -1.39510  -1.18688
H    -1.60235  -0.95156  -2.09385
H     1.97569   1.44715  -0.75242
H     4.01984   0.96544   0.56826
H     4.45917  -1.34622   1.41504
H     2.82788  -3.16884   0.89470
H     0.79011  -2.68824  -0.41143
29

C     0.11101   3.79921  -0.39098
O    -0.03946   2.54804  -1.09555
C    -0.87364   1.71543  -0.51412
C    -1.73943   1.21361   0.19565
F    -2.80821   1.21273   0.96462
C    -1.67889  -1.12733  -0.12498
C    -3.09010  -1.63184  -0.20528
C    -1.04041  -1.23184   1.14665
N    -0.65338  -1.35635   2.23903
N    -0.99373  -0.94720  -1.27022
N     0.12284  -0.29816  -1.47448
C     1.21527  -0.57220  -0.63690
C     2.15968   0.44136  -0.37663
C     3.30754   0.16174   0.36378
C     3.55692  -1.13129   0.83870
C     2.64176  -2.14885   0.55098
C     1.48536  -1.88007  -0.17957
H     0.80866   4.40138  -0.97869
H    -0.86354   4.30914  -0.31188
H     0.51737   3.61422   0.61664
H    -3.70034  -1.15055   0.57523
H    -3.12725  -2.71787  -0.04263
H    -3.52609  -1.39444  -1.18625
H    -1.60162  -0.95301  -2.09439
H     1.97634   1.44778  -0.75186
H     4.02027   0.96527   0.56841
H     4.45898  -1.34666   1.41498
H     2.82721  -3.16874   0.89412
H     0.78939  -2.68725  -0.41197
29

C     0.10699   3.79675  -0.38774
O    -0.04349   2.54664  -1.09388
C    -0.86481   1.69593  -0.51961
C    -1.73679   1.18559   0.18745
F    -2.80379   1.22104   0.96214
C    -1.68318  -1.10512  -0.12262
C    -3.08953  -1.62642  -0.20331
C    -1.04085  -1.22973   1.14823
N    -0.65327  -1.35847   2.23945
N    -0.99130  -0.95524  -1.27263
N     0.11744  -0.28425  -1.46585
C     1.21486  -0.56874  -0.63645
C     2.16097   0.44289  -0.37596
C     3.30838   0.16182   0.36396
C     3.55658  -1.13176   0.83836
C     2.64065  -2.14810   0.54942
C     1.48417  -1.87786  -0.18147
H     0.80723   4.40084  -0.97790
H    -0.86468   4.30843  -0.31056
H     0.51666   3.61338   0.61737
H    -3.70139  -1.15101   0.57606
H    -3.12337  -2.71642  -0.04231
H    -3.52650  -1.39378  -1.18563
H    -1.60089  -0.95445  -2.09492
H     1.97699   1.44842  -0.75129
H     4.02070   0.96510   0.56856
H     4.45878  -1.34709   1.41493
H     2.82653  -3.16863   0.89353
H     0.78867  -2.68626  -0.41252
29

C     0.10297   3.79429  -0.38451
O    -0.04753   2.54525  -1.09220
C    -0.85597   1.67643  -0.52511
C    -1.73415   1.15758   0.17925
F    -2.79936   1.22934   0.95967
C    -1.68748  -1.08291  -0.12026
C    -3.08896  -1.62101  -0.20134
C    -1.04129  -1.22762   1.14981
N    -0.65316  -1.36058   2.23987
N    -0.98887  -0.96328  -1.27504
N     0.11205  -0.27034  -1.45721
C     1.21444  -0.56529  -0.63600
C     2.16226   0.44441  -0.37530
C     3.30922   0.16190   0.36415
C     3.55625  -1.13222   0.83802
C     2.63953  -2.14734   0.54786
C     1.48298  -1.87564  -0.18337
H     0.80580   4.40030  -0.97711
H    -0.86581   4.30772  -0.30924
H     0.51594   3.61255   0.61809
H    -3.70243  -1.15147   0.57689
H    -3.11949  -2.71497  -0.04198
H    -3.52690  -1.39313  -1.18500
H    -1.60016  -0.95590  -2.09546
H     1.97764   1.44905  -0.75072
H     4.02114   0.96493   0.56870
H     4.45858  -1.34753   1.41488
H     2.82586  -3.16853   0.89295
H     0.78795  -2.68527  -0.41306
29

C     0.09895   3.79182  -0.38127
O    -0.05157   2.54385  -1.09053
C    -0.84714   1.65694  -0.53061
C    -1.73151   1.12956   0.17105
F    -2.79494   1.23765   0.95720
C    -1.69177  -1.06070  -0.11790
C    -3.08839  -1.61560  -0.19937
C    -1.04173  -1.22551   1.15139
N    -0.65305  -1.36270   2.24030
N    -0.98643  -0.97132  -1.27744
N     0.10665  -0.25642  -1.44857
C     1.21403  -0.56183  -0.63556
C     2.16354   0.44593  -0.37464
C     3.31007   0.16198   0.36434
C     3.55592  -1.13269   0.83768
C     2.63841  -2.14658   0.54630
C     1.48179  -1.87342  -0.18527
H     0.80437   4.39976  -0.97632
H    -0.86695   4.30701  -0.30791
H     0.51523   3.61172   0.61882
H    -3.70347  -1.15193   0.57772
H    -3.11561  -2.71352  -0.04166
H    -3.52731  -1.39247  -1.18438
H    -1.59943  -0.95734  -2.09599
H     1.97829   1.44968  -0.75016
H     4.02157   0.96476   0.56885
H     4.45838  -1.34797   1.41482
H     2.82519  -3.16842   0.89237
H     0.78723  -2.68428  -0.41360
29

C     0.09493   3.78936  -0.37804
O    -0.05561   2.54246  -1.08886
C    -0.83831   1.63744  -0.53611
C    -1.72886   1.10154   0.16285
F    -2.79052   1.24596   0.95472
C    -1.69607  -1.03849  -0.11554
C    -3.08782  -1.61019  -0.19740
C    -1.04217  -1.22339   1.15297
N    -0.65294  -1.36481   2.24072
N    -0.98400  -0.97937  -1.27985
N     0.10125  -0.24251  -1.43994
C     1.21361  -0.55837  -0.63511
C     2.16483   0.44746  -0.37397
C     3.31091   0.16205   0.36452
C     3.55558  -1.13316   0.83734
C     2.63730  -2.14582   0.54475
C     1.48060  -1.87120  -0.18717
H     0.80293   4.39922  -0.97553
H    -0.86808   4.30631  -0.30659
H     0.51452   3.61089   0.61954
H    -3.70451  -1.15239   0.57854
H    -3.11173  -2.71207  -0.04134
H    -3.52771  -1.39181  -1.18375
H    -1.59870  -0.95879  -2.09652
H     1.97894   1.45032  -0.74959
H     4.02200   0.96458   0.56900
H     4.45818  -1.34840   1.41477
H     2.82451  -3.16832   0.89179
H     0.78651  -2.68329  -0.41414
29

C     0.09091   3.78689  -0.37480
O    -0.05964   2.54107  -1.08718
C    -0.82948   1.61794  -0.54161
C    -1.72622   1.07353   0.15465
F    -2.78609   1.25426   0.95225
C    -1.70037  -1.01627  -0.11317
C    -3.08725  -1.60478  -0.19543
C    -1.04260  -1.22128   1.15455
N    -0.65283  -1.36693   2.24114
N    -0.98157  -0.98741  -1.28226
N     0.09585  -0.22860  -1.43130
C     1.21319  -0.55491  -0.63466
C     2.16612   0.44898  -0.37331
C     3.31175   0.16213   0.36471
C     3.55525  -1.13363   0.83700
C     2.63618  -2.14507   0.54319
C     1.47941  -1.86898  -0.18907
H     0.80150   4.39868  -0.97474
H    -0.86922   4.30560  -0.30526
H     0.51381   3.61005   0.62027
H    -3.70555  -1.15285   0.57937
H    -3.10785  -2.71063  -0.04102
H    -3.52812  -1.39115  -1.18313
H    -1.59798  -0.96024  -2.09706
H     1.97959   1.45095  -0.74903
H     4.02244   0.96441   0.56915
H     4.45798  -1.34884   1.41472
H     2.82384  -3.16821   0.89120
H     0.78579  -2.68230  -0.41468
29

C     0.08689   3.78443  -0.37157
O    -0.06368   2.53967  -1.08551
C    -0.82065   1.59845  -0.54711
C    -1.72358   1.04551   0.14645
F    -2.78167   1.26257   0.94978
C    -1.70466  -0.99406  -0.11081
C    -3.08668  -1.59937  -0.19346
C    -1.04304  -1.21917   1.15613
N    -0.65272  -1.36905   2.24156
N    -0.97913  -0.99545  -1.28466
N     0.09046  -0.21469  -1.42266
C     1.21278  -0.55145  -0.63422
C     2.16741   0.45050  -0.37265
C     3.31259   0.16221   0.36490
C     3.55492  -1.13410   0.83666
C     2.63507  -2.14431   0.54163
C     1.47821  -1.86676  -0.19097
H     0.80007   4.39814  -0.97395
H    -0.87036   4.30489  -0.30394
H     0.51309   3.60922   0.62099
H    -3.70660  -1.15330   0.58020
H    -3.10397  -2.70918  -0.04069
H    -3.52853  -1.39049  -1.18250
H    -1.59725  -0.96168  -2.09759
H     1.98024   1.45159  -0.74846
H     4.02287   0.96424   0.56929
H     4.45779  -1.34928   1.41466
H     2.82316  -3.16811   0.89062
H     0.78507  -2.68131  -0.41523
29

C     0.08287   3.78197  -0.36833
O    -0.06772   2.53828  -1.08384
C    -0.81182   1.57895  -0.55261
C    -1.72094   1.01749   0.13825
F    -2.77725   1.27087   0.94731
C    -1.70896  -0.97185  -0.10845
C    -3.08611  -1.59395  -0.19149
C    -1.04348  -1.21706   1.15771
N    -0.65261  -1.37116   2.24199
N    -0.97670  -1.00349  -1.28707
N     0.08506  -0.20077  -1.41403
C     1.21236  -0.54799  -0.63377
C     2.16870   0.45203  -0.37198
C     3.31344   0.16229   0.36509
C     3.55458  -1.13456   0.83632
C     2.63395  -2.14355   0.54007
C     1.47702  -1.86455  -0.19287
H     0.79864   4.39760  -0.97316
H    -0.87149   4.30418  -0.30261
H     0.51238   3.60839   0.62172
H    -3.70764  -1.15376   0.58103
H    -3.10010  -2.70773  -0.04037
H    -3.52893  -1.38983  -1.18188
H    -1.59652  -0.96313  -2.09813
H     1.98089   1.45222  -0.74789
H     4.02330   0.96407   0.56944
H     4.45759  -1.34972   1.41461
H     2.82249  -3.16800   0.89004
H     0.78435  -2.68032  -0.41577
29

C     0.07885   3.77950  -0.36510
O    -0.07176   2.53688  -1.08216
C    -0.80298   1.55945  -0.55811
C    -1.71830   0.98948   0.13005
F    -2.77282   1.27918   0.94483
C    -1.71325  -0.94964  -0.10609
C    -3.08555  -1.58854  -0.18952
C    -1.04392  -1.21495   1.15929
N    -0.65250  -1.37328   2.24241
N    -0.97426  -1.01153  -1.28947
N     0.07966  -0.18686  -1.40539
C     1.21194  -0.54453  -0.63332
C     2.16999   0.45355  -0.37132
C     3.31428   0.16236   0.36527
C     3.55425  -1.13503   0.83598
C     2.63284  -2.14279   0.53851
C     1.47583  -1.86233  -0.19477
H     0.79721   4.39706  -0.97237
H    -0.87263   4.30348  -0.30129
H     0.51167   3.60756   0.62244
H    -3.70868  -1.15422   0.58186
H    -3.09622  -2.70628  -0.04005
H    -3.52934  -1.38917  -1.18125
H    -1.59579  -0.96458  -2.09866
H     1.98154   1.45285  -0.74733
H     4.02374   0.96390   0.56959
H     4.45739  -1.35015   1.41456
H     2.82182  -3.16790   0.88946
H     0.78363  -2.67933  -0.41631
29

C     0.07483   3.77704  -0.36187
O    -0.07580   2.53549  -1.08049
C    -0.79415   1.53996  -0.56360
C    -1.71566   0.96146   0.12186
F    -2.76840   1.28749   0.94236
C    -1.71755  -0.92743  -0.10373
C    -3.08498  -1.58313  -0.18755
C    -1.04436  -1.21284   1.16087
N    -0.65240  -1.37539   2.24283
N    -0.97183  -1.01957  -1.29188
N     0.07426  -0.17295  -1.39675
C     1.21153  -0.54107  -0.63288
C     2.17128   0.45507  -0.37066
C     3.31512   0.16244   0.36546
C     3.55392  -1.13550   0.83564
C     2.63172  -2.14204   0.53695
C     1.47464  -1.86011  -0.19667
H     0.79578   4.39651  -0.97158
H    -0.87376   4.30277  -0.29996
H     0.51096   3.60672   0.62317
H    -3.70972  -1.15468   0.58268
H    -3.09234  -2.70483  -0.03973
H    -3.52974  -1.38852  -1.18063
H    -1.59506  -0.96602  -2.09919
H     1.98219   1.45349  -0.74676
H     4.02417   0.96372   0.56974
H     4.45719  -1.35059   1.41450
H     2.82114  -3.16779   0.88887
H     0.78291  -2.67834  -0.41685
29

C     0.07080   3.77457  -0.35863
O    -0.07983   2.53410  -1.07882
C    -0.78532   1.52046  -0.56910
C    -1.71302   0.93344   0.11366
F    -2.76398   1.29579   0.93989
C    -1.72184  -0.90522  -0.10137
C    -3.08441  -1.57772  -0.18558
C    -1.04480  -1.21072   1.16245
N    -0.65229  -1.37751   2.24326
N    -0.96940  -1.02761  -1.29429
N     0.06886  -0.15904  -1.38812
C     1.21111  -0.53761  -0.63243
C     2.17257   0.45659  -0.36999
C     3.31597   0.16252   0.36565
C     3.55358  -1.13597   0.83530
C     2.63060  -2.14128   0.53539
C     1.47345  -1.85789  -0.19857
H     0.79435   4.39597  -0.97078
H    -0.87490   4.30206  -0.29864
H     0.51024   3.60589   0.62390
H    -3.71077  -1.15514   0.58351
H    -3.08846  -2.70339  -0.03940
H    -3.53015  -1.38786  -1.18001
H    -1.59433  -0.96747  -2.09973
H     1.98284   1.45412  -0.74620
H     4.02460   0.96355   0.56988
H     4.45699  -1.35103   1.41445
H     2.82047  -3.16769   0.88829
H     0.78219  -2.67735  -0.41739
29

C     0.06678   3.77211  -0.35540
O    -0.08387   2.53270  -1.07715
C    -0.77649   1.50096  -0.57460
C    -1.71038   0.90543   0.10546
F    -2.75955   1.30410   0.93741
C    -1.72614  -0.88301  -0.09900
C    -3.08384  -1.57231  -0.18361
C    -1.04524  -1.20861   1.16403
N    -0.65218  -1.37962   2.24368
N    -0.96696  -1.03565  -1.29669
N     0.06347  -0.14512  -1.37948
C     1.21070  -0.53415  -0.63199
C     2.17386   0.45812  -0.36933
C     3.31681   0.16260   0.36583
C     3.55325  -1.13644   0.83496
C     2.62949  -2.14052   0.53384
C     1.47226  -1.85567  -0.20048
H     0.79292   4.39543  -0.96999
H    -0.87603   4.30135  -0.29731
H     0.50953   3.60506   0.62462
H    -3.71181  -1.15560   0.58434
H    -3.08458  -2.70194  -0.03908
H    -3.53056  -1.38720  -1.17938
H    -1.59360  -0.96892  -2.10026
H     1.98349   1.45476  -0.74563
H     4.02503   0.96338   0.57003
H     4.45679  -1.35146   1.41439
H     2.81980  -3.16758   0.88771
H     0.78146  -2.67636  -0.41794
29

C     0.07080   3.77457  -0.35863
O    -0.07983   2.53410  -1.07882
C    -0.78532   1.52046  -0.56910
C    -1.71302   0.93344   0.11366
F    -2.76398   1.29579   0.93989
C    -1.72184  -0.90522  -0.10137
C    -3.08441  -1.57772  -0.18558
C    -1.04480  -1.21072   1.16245
N    -0.65229  -1.37751   2.24326
N    -0.96940  -1.02761  -1.29429
N     0.06886  -0.15904  -1.38812
C     1.21111  -0.53761  -0.63243
C     2.17257   0.45659  -0.36999
C     3.31597   0.16252   0.36565
C     3.55358  -1.13597   0.83530
C     2.63060  -2.14128   0.53539
C     1.47345  -1.85789  -0.19857
H     0.79435   4.39597  -0.97078
H    -0.87490   4.30206  -0.29864
H     0.51024   3.60589   0.62390
H    -3.71077  -1.15514   0.58351
H    -3.08846  -2.70339  -0.03940
H    -3.53015  -1.38786  -1.18001
H    -1.59433  -0.96747  -2.09973
H     1.98284   1.45412  -0.74620
H     4.02460   0.96355   0.56988
H     4.45699  -1.35103   1.41445
H     2.82047  -3.16769   0.88829
H     0.78219  -2.67735  -0.41739
29

C     0.07483   3.77704  -0.36187
O    -0.07580   2.53549  -1.08049
C    -0.79415   1.53996  -0.56360
C    -1.71566   0.96146   0.12186
F    -2.76840   1.28749   0.94236
C    -1.71755  -0.92743  -0.10373
C    -3.08498  -1.58313  -0.18755
C    -1.04436  -1.21284   1.16087
N    -0.65240  -1.37539   2.24283
N    -0.97183  -1.01957  -1.29188
N     0.07426  -0.17295  -1.39675
C     1.21153  -0.54107  -0.63288
C     2.17128   0.45507  -0.37066
C     3.31512   0.16244   0.36546
C     3.55392  -1.13550   0.83564
C     2.63172  -2.14204   0.53695
C     1.47464  -1.86011  -0.19667
H     0.79578   4.39651  -0.97158
H    -0.87376   4.30277  -0.29996
H     0.51096   3.60672   0.62317
H    -3.70972  -1.15468   0.58268
H    -3.09234  -2.70483  -0.03973
H    -3.52974  -1.38852  -1.18063
H    -1.59506  -0.96602  -2.09919
H     1.98219   1.45349  -0.74676
H     4.02417   0.96372   0.56974
H     4.45719  -1.35059   1.41450
H     2.82114  -3.16779   0.88887
H     0.78291  -2.67834  -0.41685
29

C     0.07885   3.77950  -0.36510
O    -0.07176   2.53688  -1.08216
C    -0.80298   1.55945  -0.55811
C    -1.71830   0.98948   0.13005
F    -2.77282   1.27918   0.94483
C    -1.71325  -0.94964  -0.10609
C    -3.08555  -1.58854  -0.18952
C    -1.04392  -1.21495   1.15929
N    -0.65250  -1.37328   2.24241
N    -0.97426  -1.01153  -1.28947
N     0.07966  -0.18686  -1.40539
C     1.21194  -0.54453  -0.63332
C     2.16999   0.45355  -0.37132
C     3.31428   0.16236   0.36527
C     3.55425  -1.13503   0.83598
C     2.63284  -2.14279   0.53851
C     1.47583  -1.86233  -0.19477
H     0.79721   4.39706  -0.97237
H    -0.87263   4.30348  -0.30129
H     0.51167   3.60756   0.62244
H    -3.70868  -1.15422   0.58186
H    -3.09622  -2.70628  -0.04005
H    -3.52934  -1.38917  -1.18125
H    -1.59579  -0.96458  -2.09866
H     1.98154   1.45285  -0.74733
H     4.02374   0.96390   0.56959
H     4.45739  -1.35015   1.41456
H     2.82182  -3.16790   0.88946
H     0.78363  -2.67933  -0.41631
29

C     0.08287   3.78197  -0.36833
O    -0.06772   2.53828  -1.08384
C    -0.81182   1.57895  -0.55261
C    -1.72094   1.01749   0.13825
F    -2.77725   1.27087   0.94731
C    -1.70896  -0.97185  -0.10845
C    -3.08611  -1.59395  -0.19149
C    -1.04348  -1.21706   1.15771
N    -0.65261  -1.37116   2.24199
N    -0.97670  -1.00349  -1.28707
N     0.08506  -0.20077  -1.41403
C     1.21236  -0.54799  -0.63377
C     2.16870   0.45203  -0.37198
C     3.31344   0.16229   0.36509
C     3.55458  -1.13456   0.83632
C     2.63395  -2.14355   0.54007
C     1.47702  -1.86455  -0.19287
H     0.79864   4.39760  -0.97316
H    -0.87149   4.30418  -0.30261
H     0.51238   3.60839   0.62172
H    -3.70764  -1.15376   0.58103
H    -3.10010  -2.70773  -0.04037
H    -3.52893  -1.38983  -1.18188
H    -1.59652  -0.96313  -2.09813
H     1.98089   1.45222  -0.74789
H     4.02330   0.96407   0.56944
H     4.45759  -1.34972   1.41461
H     2.82249  -3.16800   0.89004
H     0.78435  -2.68032  -0.41577
29

C     0.08689   3.78443  -0.37157
O    -0.06368   2.53967  -1.08551
C    -0.82065   1.59845  -0.54711
C    -1.72358   1.04551   0.14645
F    -2.78167   1.26257   0.94978
C    -1.70466  -0.99406  -0.11081
C    -3.08668  -1.59937  -0.19346
C    -1.04304  -1.21917   1.15613
N    -0.65272  -1.36905   2.24156
N    -0.97913  -0.99545  -1.28466
N     0.09046  -0.21469  -1.42266
C     1.21278  -0.55145  -0.63422
C     2.16741   0.45050  -0.37265
C     3.31259   0.16221   0.36490
C     3.55492  -1.13410   0.83666
C     2.63507  -2.14431   0.54163
C     1.47821  -1.86676  -0.19097
H     0.80007   4.39814  -0.97395
H    -0.87036   4.30489  -0.30394
H     0.51309   3.60922   0.62099
H    -3.70660  -1.15330   0.58020
H    -3.10397  -2.70918  -0.04069
H    -3.52853  -1.39049  -1.18250
H    -1.59725  -0.96168  -2.09759
H     1.98024   1.45159  -0.74846
H     4.02287   0.96424   0.56929
H     4.45779  -1.34928   1.41466
H     2.82316  -3.16811   0.89062
H     0.78507  -2.68131  -0.41523
29

C     0.09091   3.78689  -0.37480
O    -0.05964   2.54107  -1.08718
C    -0.82948   1.61794  -0.54161
C    -1.72622   1.07353   0.15465
F    -2.78609   1.25426   0.95225
C    -1.70037  -1.01627  -0.11317
C    -3.08725  -1.60478  -0.19543
C    -1.04260  -1.22128   1.15455
N    -0.65283  -1.36693   2.24114
N    -0.98157  -0.98741  -1.28226
N     0.09585  -0.22860  -1.43130
C     1.21319  -0.55491  -0.63466
C     2.16612   0.44898  -0.37331
C     3.31175   0.16213   0.36471
C     3.55525  -1.13363   0.83700
C     2.63618  -2.14507   0.54319
C     1.47941  -1.86898  -0.18907
H     0.80150   4.39868  -0.97474
H    -0.86922   4.30560  -0.30526
H     0.51381   3.61005   0.62027
H    -3.70555  -1.15285   0.57937
H    -3.10785  -2.71063  -0.04102
H    -3.52812  -1.39115  -1.18313
H    -1.59798  -0.96024  -2.09706
H     1.97959   1.45095  -0.74903
H     4.02244   0.96441   0.56915
H     4.45798  -1.34884   1.41472
H     2.82384  -3.16821   0.89120
H     0.78579  -2.68230  -0.41468
29

C     0.09493   3.78936  -0.37804
O    -0.05561   2.54246  -1.08886
C    -0.83831   1.63744  -0.53611
C    -1.72886   1.10154   0.16285
F    -2.79052   1.24596   0.95472
C    -1.69607  -1.03849  -0.11554
C    -3.08782  -1.61019  -0.19740
C    -1.04217  -1.22339   1.15297
N    -0.65294  -1.36481   2.24072
N    -0.98400  -0.97937  -1.27985
N     0.10125  -0.24251  -1.43994
C     1.21361  -0.55837  -0.63511
C     2.16483   0.44746  -0.37397
C     3.31091   0.16205   0.36452
C     3.55558  -1.13316   0.83734
C     2.63730  -2.14582   0.54475
C     1.48060  -1.87120  -0.18717
H     0.80293   4.39922  -0.97553
H    -0.86808   4.30631  -0.30659
H     0.51452   3.61089   0.61954
H    -3.70451  -1.15239   0.57854
H    -3.11173  -2.71207  -0.04134
H    -3.52771  -1.39181  -1.18375
H    -1.59870  -0.95879  -2.09652
H     1.97894   1.45032  -0.74959
H     4.02200   0.96458   0.56900
H     4.45818  -1.34840   1.41477
H     2.82451  -3.16832   0.89179
H     0.78651  -2.68329  -0.41414
29

C     0.09895   3.79182  -0.38127
O    -0.05157   2.54385  -1.09053
C    -0.84714   1.65694  -0.53061
C    -1.73151   1.12956   0.17105
F    -2.79494   1.23765   0.95720
C    -1.69177  -1.06070  -0.11790
C    -3.08839  -1.61560  -0.19937
C    -1.04173  -1.22551   1.15139
N    -0.65305  -1.36270   2.24030
N    -0.98643  -0.97132  -1.27744
N     0.10665  -0.25642  -1.44857
C     1.21403  -0.56183  -0.63556
C     2.16354   0.44593  -0.37464
C     3.31007   0.16198   0.36434
C     3.55592  -1.13269   0.83768
C     2.63841  -2.14658   0.54630
C     1.48179  -1.87342  -0.18527
H     0.80437   4.39976  -0.97632
H    -0.86695   4.30701  -0.30791
H     0.51523   3.61172   0.61882
H    -3.70347  -1.15193   0.57772
H    -3.11561  -2.71352  -0.04166
H    -3.52731  -1.39247  -1.18438
H    -1.59943  -0.95734  -2.09599
H     1.97829   1.44968  -0.75016
H     4.02157   0.96476   0.56885
H     4.45838  -1.34797   1.41482
H     2.82519  -3.16842   0.89237
H     0.78723  -2.68428  -0.41360
29

C     0.10297   3.79429  -0.38451
O    -0.04753   2.54525  -1.09220
C    -0.85597   1.67643  -0.52511
C    -1.73415   1.15758   0.17925
F    -2.79936   1.22934   0.95967
C    -1.68748  -1.08291  -0.12026
C    -3.08896  -1.62101  -0.20134
C    -1.04129  -1.22762   1.14981
N    -0.65316  -1.36058   2.23987
N    -0.98887  -0.96328  -1.27504
N     0.11205  -0.27034  -1.45721
C     1.21444  -0.56529  -0.63600
C     2.16226   0.44441  -0.37530
C     3.30922   0.16190   0.36415
C     3.55625  -1.13222   0.83802
C     2.63953  -2.14734   0.54786
C     1.48298  -1.87564  -0.18337
H     0.80580   4.40030  -0.97711
H    -0.86581   4.30772  -0.30924
H     0.51594   3.61255   0.61809
H    -3.70243  -1.15147   0.57689
H    -3.11949  -2.71497  -0.04198
H    -3.52690  -1.39313  -1.18500
H    -1.60016  -0.95590  -2.09546
H     1.97764   1.44905  -0.75072
H     4.02114   0.96493   0.56870
H     4.45858  -1.34753   1.41488
H     2.82586  -3.16853   0.89295
H     0.78795  -2.68527  -0.41306
29

C     0.10699   3.79675  -0.38774
O    -0.04349   2.54664  -1.09388
C    -0.86481   1.69593  -0.51961
C    -1.73679   1.18559   0.18745
F    -2.80379   1.22104   0.96214
C    -1.68318  -1.10512  -0.12262
C    -3.08953  -1.62642  -0.20331
C    -1.04085  -1.22973   1.14823
N    -0.65327  -1.35847   2.23945
N    -0.99130  -0.95524  -1.27263
N     0.11744  -0.28425  -1.46585
C     1.21486  -0.56874  -0.63645
C     2.16097   0.44289  -0.37596
C     3.30838   0.16182   0.36396
C     3.55658  -1.13176   0.83836
C     2.64065  -2.14810   0.54942
C     1.48417  -1.87786  -0.18147
H     0.80723   4.40084  -0.97790
H    -0.86468   4.30843  -0.31056
H     0.51666   3.61338   0.61737
H    -3.70139  -1.15101   0.57606
H    -3.12337  -2.71642  -0.04231
H    -3.52650  -1.39378  -1.18563
H    -1.60089  -0.95445  -2.09492
H     1.97699   1.44842  -0.75129
H     4.02070   0.96510   0.56856
H     4.45878  -1.34709   1.41493
H     2.82653  -3.16863   0.89353
H     0.78867  -2.68626  -0.41252
29

C     0.11101   3.79921  -0.39098
O    -0.03946   2.54804  -1.09555
C    -0.87364   1.71543  -0.51412
C    -1.73943   1.21361   0.19565
F    -2.80821   1.21273   0.96462
C    -1.67889  -1.12733  -0.12498
C    -3.09010  -1.63184  -0.20528
C    -1.04041  -1.23184   1.14665
N    -0.65338  -1.35635   2.23903
N    -0.99373  -0.94720  -1.27022
N     0.12284  -0.29816  -1.47448
C     1.21527  -0.57220  -0.63690
C     2.15968   0.44136  -0.37663
C     3.30754   0.16174   0.36378
C     3.55692  -1.13129   0.83870
C     2.64176  -2.14885   0.55098
C     1.48536  -1.88007  -0.17957
H     0.80866   4.40138  -0.97869
H    -0.86354   4.30914  -0.31188
H     0.51737   3.61422   0.61664
H    -3.70034  -1.15055   0.57523
H    -3.12725  -2.71787  -0.04263
H    -3.52609  -1.39444  -1.18625
H    -1.60162  -0.95301  -2.09439
H     1.97634   1.44778  -0.75186
H     4.02027   0.96527   0.56841
H     4.45898  -1.34666   1.41498
H     2.82721  -3.16874   0.89412
H     0.78939  -2.68725  -0.41197
29

C     0.11503   3.80168  -0.39421
O    -0.03542   2.54943  -1.09722
C    -0.88247   1.73493  -0.50862
C    -1.74207   1.24163   0.20385
F    -2.81263   1.20442   0.96709
C    -1.67459  -1.14954  -0.12735
C    -3.09067  -1.63725  -0.20725
C    -1.03997  -1.23395   1.14507
N    -0.65349  -1.35424   2.23860
N    -0.99617  -0.93916  -1.26782
N     0.12824  -0.31207  -1.48312
C     1.21569  -0.57566  -0.63734
C     2.15839   0.43984  -0.37729
C     3.30669   0.16167   0.36359
C     3.55725  -1.13082   0.83904
C     2.64288  -2.14961   0.55254
C     1.48655  -1.88229  -0.17767
H     0.81009   4.40192  -0.97948
H    -0.86241   4.30985  -0.31321
H     0.51808   3.61505   0.61592
H    -3.69930  -1.15009   0.57440
H    -3.13112  -2.71931  -0.04295
H    -3.52568  -1.39510  -1.18688
H    -1.60235  -0.95156  -2.09385
H     1.97569   1.44715  -0.75242
H     4.01984   0.96544   0.56826
H     4.45917  -1.34622   1.41504
H     2.82788  -3.16884   0.89470
H     0.79011  -2.68824  -0.41143
29

C     0.11905   3.80414  -0.39745
O    -0.03138   2.55083  -1.09889
C    -0.89130   1.75442  -0.50312
C    -1.74471   1.26964   0.21205
F    -2.81705   1.19612   0.96956
C    -1.67029  -1.17175  -0.12971
C    -3.09124  -1.64266  -0.20922
C    -1.03953  -1.23606   1.14349
N    -0.65359  -1.35212   2.23818
N    -0.99860  -0.93112  -1.26541
N     0.13364  -0.32599  -1.49176
C     1.21611  -0.57912  -0.63779
C     2.15710   0.43832  -0.37795
C     3.30585   0.16159   0.36340
C     3.55758  -1.13035   0.83937
C     2.64399  -2.15037   0.55410
C     1.48774  -1.88451  -0.17577
H     0.81152   4.40246  -0.98027
H    -0.86127   4.31055  -0.31453
H     0.51879   3.61588   0.61519
H    -3.69826  -1.14964   0.57358
H    -3.13500  -2.72076  -0.04327
H    -3.52528  -1.39576  -1.18750
H    -1.60308  -0.95011  -2.09332
H     1.97504   1.44652  -0.75299
H     4.01941   0.96561   0.56812
H     4.45937  -1.34578   1.41509
H     2.82855  -3.16895   0.89528
H     0.79083  -2.68923  -0.41089
29

C     0.12307   3.80660  -0.40068
O    -0.02734   2.55222  -1.10057
C    -0.90013   1.77392  -0.49762
C    -1.74735   1.29766   0.22024
F    -2.82148   1.18781   0.97204
C    -1.66600  -1.19396  -0.13207
C    -3.09181  -1.64807  -0.21119
C    -1.03910  -1.23818   1.14191
N    -0.65370  -1.35000   2.23776
N    -1.00103  -0.92308  -1.26301
N     0.13904  -0.33990  -1.50039
C     1.21652  -0.58258  -0.63824
C     2.15581   0.43679  -0.37862
C     3.30501   0.16151   0.36322
C     3.55792  -1.12989   0.83971
C     2.64511  -2.15113   0.55566
C     1.48894  -1.88673  -0.17387
H     0.81295   4.40300  -0.98106
H    -0.86014   4.31126  -0.31586
H     0.51951   3.61671   0.61447
H    -3.69722  -1.14918   0.57275
H    -3.13888  -2.72221  -0.04360
H    -3.52487  -1.39642  -1.18813
H    -1.60381  -0.94867  -2.09279
H     1.97439   1.44588  -0.75355
H     4.01897   0.96579   0.56797
H     4.45957  -1.34534   1.41514
H     2.82923  -3.16905   0.89586
H     0.79155  -2.69022  -0.41035
29

C     0.12709   3.80907  -0.40391
O    -0.02330   2.55361  -1.10224
C    -0.90897   1.79342  -0.49212
C    -1.74999   1.32568   0.22844
F    -2.82590   1.17950   0.97451
C    -1.66170  -1.21618  -0.13443
C    -3.09238  -1.65348  -0.21316
C    -1.03866  -1.24029   1.14033
N    -0.65381  -1.34789   2.23734
N    -1.00347  -0.91504  -1.26060
N     0.14443  -0.35381  -1.50903
C     1.21694  -0.58604  -0.63868
C     2.15452   0.43527  -0.37928
C     3.30416   0.16143   0.36303
C     3.55825  -1.12942   0.84005
C     2.64622  -2.15188   0.55721
C     1.49013  -1.88895  -0.17196
H     0.81438   4.40354  -0.98185
H    -0.85900   4.31197  -0.31718
H     0.52022   3.61755   0.61374
H    -3.69617  -1.14872   0.57192
H    -3.14276  -2.72366  -0.04392
H    -3.52447  -1.39708  -1.18875
H    -1.60453  -0.94722  -2.09225
H     1.97374   1.44525  -0.75412
H     4.01854   0.96596   0.56782
H     4.45977  -1.34491   1.41520
H     2.82990  -3.16916   0.89645
H     0.79227  -2.69121  -0.40981
29

C     0.13111   3.81153  -0.40715
O    -0.01927   2.55501  -1.10391
C    -0.91780   1.81291  -0.48662
C    -1.75263   1.35369   0.23664
F    -2.83032   1.17120   0.97698
C    -1.65741  -1.23839  -0.13679
C    -3.09295  -1.65890  -0.21513
C    -1.03822  -1.24240   1.13875
N    -0.65392  -1.34577   2.23691
N    -1.00590  -0.90700  -1.25819
N     0.14983  -0.36772  -1.51767
C     1.21735  -0.58950  -0.63913
C     2.15323   0.43375  -0.37994
C     3.30332   0.16136   0.36284
C     3.55858  -1.12895   0.84039
C     2.64734  -2.15264   0.55877
C     1.49132  -1.89117  -0.17006
H     0.81581   4.40408  -0.98264
H    -0.85787   4.31268  -0.31851
H     0.52093   3.61838   0.61301
H    -3.69513  -1.14826   0.57109
H    -3.14664  -2.72511  -0.04424
H    -3.52406  -1.39774  -1.18937
H    -1.60526  -0.94577  -2.09172
H     1.97309   1.44461  -0.75469
H     4.01811   0.96613   0.56767
H     4.45997  -1.34447   1.41525
H     2.83057  -3.16926   0.89703
H     0.79299  -2.69220  -0.40927
29

C     0.13513   3.81400  -0.41038
O    -0.01523   2.55640  -1.10559
C    -0.92663   1.83241  -0.48112
C    -1.75527   1.38171   0.24484
F    -2.83475   1.16289   0.97946
C    -1.65311  -1.26060  -0.13915
C    -3.09352  -1.66431  -0.21710
C    -1.03778  -1.24451   1.13717
N    -0.65403  -1.34366   2.23649
N    -1.00833  -0.89896  -1.25579
N     0.15523  -0.38164  -1.52630
C     1.21777  -0.59296  -0.63958
C     2.15194   0.43223  -0.38061
C     3.30248   0.16128   0.36266
C     3.55892  -1.12848   0.84073
C     2.64846  -2.15340   0.56033
C     1.49251  -1.89338  -0.16816
H     0.81725   4.40462  -0.98343
H    -0.85673   4.31338  -0.31983
H     0.52164   3.61921   0.61229
H    -3.69409  -1.14780   0.57026
H    -3.15052  -2.72655  -0.04456
H    -3.52365  -1.39839  -1.19000
H    -1.60599  -0.94433  -2.09118
H     1.97243   1.44398  -0.75525
H     4.01767   0.96630   0.56753
H     4.46017  -1.34403   1.41530
H     2.83125  -3.16937   0.89761
H     0.79371  -2.69319  -0.40872
29

C     0.13915   3.81646  -0.41362
O    -0.01119   2.55780  -1.10726
C    -0.93546   1.85191  -0.47563
C    -1.75791   1.40973   0.25304
F    -2.83917   1.15458   0.98193
C    -1.64881  -1.28281  -0.14152
C    -3.09409  -1.66972  -0.21907
C    -1.03734  -1.24662   1.13559
N    -0.65414  -1.34154   2.23607
N    -1.01077  -0.89092  -1.25338
N     0.16063  -0.39555  -1.53494
C     1.21819  -0.59642  -0.64002
C     2.15065   0.43070  -0.38127
C     3.30164   0.16120   0.36247
C     3.55925  -1.12801   0.84107
C     2.64957  -2.15416   0.56189
C     1.49370  -1.89560  -0.16626
H     0.81868   4.40516  -0.98422
H    -0.85559   4.31409  -0.32116
H     0.52236   3.62004   0.61156
H    -3.69305  -1.14734   0.56944
H    -3.15440  -2.72800  -0.04489
H    -3.52325  -1.39905  -1.19062
H    -1.60672  -0.94288  -2.09065
H     1.97178   1.44335  -0.75582
H     4.01724   0.96647   0.56738
H     4.46037  -1.34360   1.41536
H     2.83192  -3.16947   0.89819
H     0.79443  -2.69418  -0.40818
29

C     0.14317   3.81892  -0.41685
O    -0.00715   2.55919  -1.10893
C    -0.94429   1.87140  -0.47013
C    -1.76055   1.43774   0.26124
F    -2.84359   1.14628   0.98440
C    -1.64452  -1.30502  -0.14388
C    -3.09466  -1.67513  -0.22104
C    -1.03690  -1.24873   1.13401
N    -0.65425  -1.33943   2.23564
N    -1.01320  -0.88287  -1.25098
N     0.16603  -0.40946  -1.54358
C     1.21860  -0.59988  -0.64047
C     2.14936   0.42918  -0.38193
C     3.30079   0.16112   0.36228
C     3.55958  -1.12755   0.84141
C     2.65069  -2.15491   0.56345
C     1.49489  -1.89782  -0.16436
H     0.82011   4.40570  -0.98502
H    -0.85446   4.31480  -0.32248
H     0.52307   3.62088   0.61084
H    -3.69201  -1.14688   0.56861
H    -3.15827  -2.72945  -0.04521
H    -3.52284  -1.39971  -1.19125
H    -1.60745  -0.94143  -2.09012
H     1.97113   1.44271  -0.75638
H     4.01681   0.96665   0.56723
H     4.46056  -1.34316   1.41541
H     2.83260  -3.16958   0.89878
H     0.79515  -2.69518  -0.40764
