10

N -2.777827332 -1.449882467 -1.032797499
C -0.950157243 0.332429584 -0.299329500
C 1.294648552 -0.179042858 0.620125117
C 3.479904278 -0.689810356 1.604954130
C -1.721110776 2.934853066 -0.475320903
N -2.363873433 4.997552040 -0.676714724
H -3.743121622 -0.937769163 -2.594776139
H -2.067880395 -3.209344441 -1.201301335
H 3.685660720 -1.033172062 3.617120655
H 5.176206767 -0.772608819 0.455134660

