10

N -1.905025631 -1.458350556 -1.377146228
C -0.531212143 0.396241799 -0.272977061
C 1.820871383 -0.036601633 0.881886087
C 3.872906330 -1.152600787 1.484700349
C -1.633158991 2.874342599 -0.244421391
N -2.547799361 4.842624563 -0.318083463
H -3.800474545 -1.350819603 -1.426504136
H -1.114001147 -3.178328649 -1.513816588
H 0.390766053 0.560178980 2.564719799
H 5.459575697 -1.503484057 0.238738985

