11

N 2.877715893 1.668867143 0.056016131
C 3.183106123 0.025522225 -1.416267716
O 0.517515445 -2.165604445 -1.749884275
C -1.088945439 -1.868304662 -0.004395654
C -1.967134409 1.690250188 1.113044908
O -2.878665896 1.809314234 3.169950567
H 0.415004001 1.192560747 0.797256517
H 4.361323319 -0.895371230 -2.785285514
H -0.708668991 -2.564656380 1.911416930
H -3.082053434 -1.813891661 -0.570793231
H -2.640209482 2.847378249 -0.506464308

