11

O 3.761751298 0.739273313 -0.460854804
C 1.313234651 0.319468689 -0.160148714
C -0.114614648 -2.113261544 0.001761829
C -2.881384928 -1.414393391 0.345463025
C -2.843671759 1.115268851 0.356424060
N -0.269628353 2.152829915 0.047081676
H 4.644132607 -0.844098065 -0.578292288
H 0.601742296 -3.246816992 1.579859587
H 0.199426426 -3.231643417 -1.712430886
H -4.311304347 2.522684731 0.552346424
H 0.246257562 3.989935387 -0.007339583

