16

C -1.132702746 2.773261508 0.647117020
C -1.050517763 -0.078956726 0.287441649
C 0.757073551 -0.629579738 -2.302947472
C 3.096271053 -0.907136797 -1.013789462
C 3.776340210 -1.248259253 1.206681007
C 0.171426732 -1.501770397 2.370805931
N -3.264831241 -1.388101991 0.472657637
H 0.745078968 3.620913392 0.566041156
H -1.968162684 3.221729233 2.481066934
H -2.302790757 3.627660093 -0.822628944
H 0.581159361 0.982208472 -3.566883175
H 0.114018610 -2.355811766 -3.220597344
H 5.234319700 -1.609993878 2.563280508
H 0.093373541 -3.538297420 2.223097907
H -0.048946099 -0.760282306 4.276212927
H -4.750252237 -0.180417633 0.725176296

