17

C 4.274974249 -0.309408071 -0.059796471
C 2.123067182 1.449061249 0.690336077
C -0.097007144 -0.004715112 1.737293030
O -2.230361296 1.560734822 2.453749733
C -3.882053833 -0.013227195 1.037586405
C -3.280945767 0.115115615 -1.701922478
C -1.765818767 -1.589984740 0.006139323
H 3.670234356 -1.641934029 -1.516647341
H 4.946873554 -1.406199161 1.555849672
H 5.878289590 0.747732275 -0.807393858
H 1.507360263 2.566203631 -0.933324659
H 2.752275929 2.794853538 2.127329951
H 0.487265012 -1.115264561 3.385536779
H -5.694376379 -0.502412754 1.846951361
H -4.576998933 -0.876439991 -2.937296331
H -2.478187123 1.833887514 -2.473703030
H -1.634590875 -3.608003048 -0.264324913

