17

O 0.932955539 -1.447854318 4.249548343
C 2.485915914 -1.209663279 2.383470932
C 1.550055979 -0.877076432 -0.223839760
C 0.521846301 1.787051786 -0.745570712
C -0.750351587 2.138340194 -3.252495732
C -1.065268682 0.405812279 -5.031592848
C -1.531844670 -1.436680689 4.248921124
H 4.443418710 -1.320418936 2.940554634
H 3.076687613 -1.300931892 -1.545134093
H 0.046446841 -2.276071428 -0.570886262
H 2.083093994 3.136320397 -0.601499504
H -0.803559075 2.339991508 0.745675554
H -1.462795551 4.035227493 -3.598731466
H -2.009131777 0.862043868 -6.789165191
H -0.403227776 -1.521068733 -4.820839517
H -2.570509051 -1.199604229 2.511471021
H -2.375857773 -1.786894410 6.064289625

