15

C -3.370878400 -0.503595590 -1.127596820
N -2.252496622 0.896800921 1.918413603
C -0.950064741 -0.879927103 3.181409772
N 1.369419516 -1.323846163 2.306700184
C 1.661844051 0.188715421 0.291546039
C 3.998398960 0.222645283 -1.283670245
C -0.563835902 1.557485778 -0.045237360
H -2.459668752 -2.336520648 -1.214252195
H -5.268215793 -0.594583163 -0.365265446
H -3.403324147 0.440285513 -2.952018752
H -1.754269724 -1.866372587 4.777484022
H 4.101282076 -1.443416202 -2.499755021
H 4.058734646 1.895647128 -2.486210466
H 5.672671891 0.216461343 -0.083751093
H -0.860049546 3.254620521 -1.136048998

