10

O 3.749688250 1.170326059 0.783353424
C 1.382164528 0.510201525 0.205278228
C -0.941159407 1.518942981 0.140053688
C -1.901406673 -1.039169656 -0.702196169
N 0.799289484 -1.900662669 -0.727423937
H 3.758265830 2.882918800 1.383000448
H -1.750205207 3.379043132 0.294089384
H -3.049149523 -2.071209582 0.667800092
H -2.759027203 -1.152885720 -2.574133470
H 1.224101693 -3.374573551 0.418852674

