10

O 3.765759728 1.218866812 0.758228438
C 1.696463191 0.432351952 -0.204472071
C -0.613279981 1.701079339 0.249047875
C -1.819730839 -0.890491012 -0.301309517
N 0.778528311 -1.842475866 -0.940768763
H 1.793874567 2.219170451 1.849632297
H -1.203411517 3.465192533 -0.594240953
H -2.603444407 -1.869110290 1.334468313
H -3.106810717 -0.998660957 -1.904528066
H 1.511073821 -3.496180640 -0.329039245

