14

C 2.439463649 -0.893525175 -1.325325024
H 4.307633044 -1.725348581 -1.459370687
C 2.160045211 1.586674412 -0.998885287
H 3.794898190 2.810026508 -0.836098477
C -0.368141364 2.713767166 -0.907083128
H -0.551193766 4.747110926 -1.076495583
C -2.400133271 1.264780089 -0.578601806
H -4.266661287 2.100884594 -0.448591956
C -2.125893702 -1.544079418 -0.236794778
H -1.918237934 -1.935297550 1.792007498
H -3.836623815 -2.524483807 -0.843169435
C 0.166098763 -2.566571542 -1.662271999
H 0.580845572 -4.494311189 -1.055852139
H -0.264443398 -2.677804846 -3.690779326

