18

C -1.591584336 -1.873060554 -2.190700461
C -1.972094978 0.722944171 -1.208227049
C -3.387784986 1.188813515 1.161675082
N 1.906545840 0.535407278 1.447988338
C 3.878132840 -1.275585581 1.978299799
C 2.097031707 1.561596310 -0.808050519
O 3.490997839 1.227379404 -2.624413280
H -1.302470544 -3.235552807 -0.678625331
H -3.295929159 -2.377714902 -3.259916138
H -0.007949662 -1.934612676 -3.511135838
H -2.313047548 2.096677913 -2.698557819
H -2.934040730 3.022379058 1.978142725
H -5.403806326 1.212994242 0.663453854
H -3.033813545 -0.268635057 2.561765798
H 5.716689339 -0.346478998 2.177921302
H 3.454175505 -2.270192244 3.731502603
H 4.095482620 -2.631651120 0.419408122
H 0.552001341 3.071809701 -0.981122541

