16

C 1.564022945 -1.327287524 -1.655933423
C 0.957446352 -0.569025732 1.090211517
C 1.967995349 2.059957605 1.710386108
C -0.531739697 -0.683409097 -3.381238615
C -2.630546141 -0.037916070 -1.651904262
C -1.940190580 -0.700847036 1.091191454
H 1.389039711 -3.407891880 -1.874483480
H 3.454110782 -0.880599467 -2.351932083
H 1.763444931 -1.916795847 2.430707244
H 4.024552109 2.119107261 1.547313647
H 1.471601996 2.611661049 3.635398238
H 1.208616484 3.491665612 0.428025896
H -4.496674178 -0.613663690 -2.312486866
H -2.598339898 2.035473898 -1.941672617
H -2.573070310 -2.620891587 1.518928845
H -2.805677757 0.554518796 2.480433214

