14

O -3.391550964 -2.121365125 -2.729551651
C -3.187966744 -1.890248275 -0.085444193
C -0.847040312 -0.568271297 0.816636131
C 1.062638920 0.126583380 -0.641685456
C 3.406461867 1.445452269 0.256408434
O 3.357649240 2.196904281 2.809616229
H -3.481969824 -0.456218853 -3.442280870
H -4.855804307 -0.940061230 0.706977818
H -3.212326353 -3.819055485 0.656829891
H -0.756959997 -0.217035045 2.839170507
H 1.004509508 -0.293803412 -2.652156501
H 2.022163215 3.404821774 3.023097021
H 3.794166847 3.063082228 -0.986893330
H 5.022450977 0.170445492 0.070803956

