14

O -4.012379494 0.374412382 -1.287101610
C -2.862473400 -1.299746221 0.410401233
C -0.065668720 -0.854002800 0.679364252
C 1.489697976 0.029271196 -1.541247494
C 3.103369563 1.352007523 0.400610713
O 0.604668632 1.784164228 1.756660549
H -2.738510994 0.791635867 -2.533456756
H -3.801239790 -1.113959139 2.240935429
H -3.072000525 -3.277289903 -0.200811917
H 0.792794533 -2.160025595 2.046057932
H 2.236937619 -1.247280224 -2.966739020
H 0.004267739 2.360978637 -0.218050376
H 4.039819319 3.136500450 -0.016069475
H 4.225289948 0.204777035 1.714401303

