14

O -0.375692634 2.786054255 -0.845975678
C -1.509820611 0.992068119 1.264501336
C -2.136379244 -1.330921222 -0.344471618
C 0.726278498 -1.896474544 -0.062333618
C 1.999666630 -0.014476757 -1.677473598
C 0.603543356 -0.333353131 2.360298222
H 0.740344958 3.894361487 0.076325415
H -2.905667191 2.131396641 2.254061920
H -2.862532340 -1.020635278 -2.252039648
H -3.310385167 -2.668006503 0.679051294
H 1.460788908 -3.825016040 -0.131330674
H 1.453760487 0.420820711 -3.604165506
H 3.927801778 0.480931028 -1.188276360
H 2.133269417 0.435241362 3.489898076

