16

C 1.620476076 2.426497256 0.376552648
C 0.712447366 -0.315352299 0.188250454
C -0.334310277 -1.227763510 2.733216416
C -3.529213865 1.046858233 -1.661012534
C -1.361956345 -0.609382969 -1.846030441
C 2.854667943 -1.934051805 -0.542188995
N 4.509846684 -3.205063020 -1.133080748
H 2.452743888 3.060796150 -1.400721979
H 3.040313900 2.618719479 1.856774668
H 0.013730448 3.637723678 0.814468407
H 1.093602102 -1.082006818 4.210701413
H -0.959698867 -3.189994873 2.625870316
H -4.923811506 0.341724750 -3.043456382
H -1.944188750 -0.043729699 3.246297619
H -1.713579234 -2.601581836 -2.308046444
H -0.703333595 0.231068246 -3.673943435

