16

C 1.930271389 2.413786107 0.322476018
C 0.863589759 -0.244269098 -0.079297198
C -0.789673443 -1.054221230 2.164148430
C -3.454108911 0.500608841 -0.628520755
C -1.162273067 -0.311262138 -2.174549161
C 2.936591539 -2.026508357 -0.526978608
N 4.551339986 -3.433520704 -0.868032656
H 3.017278932 3.010719901 -1.322353789
H 3.166895466 2.458558122 1.971682828
H 0.378385550 3.738100166 0.608952754
H -0.088669068 -0.511840390 4.025823913
H -1.308799388 -3.040011185 2.128753292
H -4.834406107 -1.054186988 -0.553001252
H -2.557894770 0.293713971 1.948700055
H -1.269172474 -2.209130450 -2.985332451
H -0.769839350 1.030315665 -3.693567920

