15

O 3.675802793 -1.495619527 -1.054359822
C 1.850157981 -0.417089409 0.528957888
C 1.144408730 2.342126464 -0.085874975
C -1.596545831 2.454223865 0.649645852
C -2.586330858 0.174588603 1.014647549
C -0.690094854 -1.865517221 0.474451365
O -1.098275205 -3.013400704 -1.936286652
H 2.762731727 -2.473734985 -2.293792448
H 2.577126739 -0.484510509 2.463392495
H 2.310396262 3.698127791 0.941345167
H 1.406476554 2.734227269 -2.099815841
H -2.628610079 4.212459993 0.844225093
H -4.530632349 -0.219820464 1.515877372
H -1.874064509 -1.782129503 -3.021783775
H -0.710328133 -3.425430144 1.820976112

