17

C 1.976442614 0.119495735 2.540505566
O 1.218078248 1.943866230 -2.954266279
C 0.048833584 -0.221061655 -2.820082591
C 1.603122324 -2.316708250 -1.429213852
O 0.428524746 -1.603596607 1.075924810
C -1.800842932 -0.419263539 -0.476396857
C -2.833452611 1.964316052 0.590481758
H 0.832942861 0.770164817 4.117626336
H 3.564398468 -0.991898875 3.228277380
H 2.577556312 1.661421263 1.311903641
H -0.871805627 -0.964077873 -4.563446800
H 3.632365246 -1.997815416 -1.358725953
H 1.107089058 -4.297190644 -1.709804393
H -3.133440208 -1.991997517 -0.494688744
H -4.527153798 2.406625028 -0.504479434
H -3.394063072 1.803031707 2.569008910
H -1.478517600 3.486889537 0.282949883

