15

C -1.449825473 1.046565344 -2.843603558
C -1.466793909 -1.058631661 -0.882667678
O -1.475291082 -3.412812160 -2.080682723
C 0.732327474 -0.888405283 0.948735376
O 2.033762448 -2.722312942 1.363800132
C 1.273676523 1.569532574 2.292424267
O 3.102434943 1.277850418 4.160296597
H -3.006285054 0.743347223 -4.155991329
H -1.687122955 2.901322427 -1.973595156
H 0.311460710 1.020626359 -3.915747234
H -3.176209454 -0.859570708 0.292739345
H -0.239845722 -4.450192641 -1.226394989
H -0.488100214 2.296457170 3.107066756
H 3.777058741 -0.408328997 3.972135830
H 1.880054544 2.944467860 0.857623988

