15

C -1.671623308 1.216771427 -2.653272781
C -1.406554203 -0.988529682 -0.852430737
O -0.354938036 -3.040291564 -2.183785802
C 0.285531627 -0.516338222 1.432697543
O 0.785110907 -2.372603892 2.928267938
C 2.186546049 1.432933570 1.571953446
O 3.820955057 0.987358467 3.303706119
H -2.968902737 0.708483098 -4.168753462
H -2.434006819 2.882294586 -1.701083496
H 0.143553366 1.685344647 -3.512074276
H -3.270926080 -1.510237088 -0.105867881
H 0.109535556 -4.279585200 -0.930902635
H -0.618179323 1.417346410 2.502824654
H 3.200738401 -0.822714321 3.801386073
H 2.256873568 3.189321375 0.523436940

