12

C -2.594424895 -1.238336320 -0.475351876
C 0.204823786 -0.631912360 -0.604116718
H 0.694468341 0.139704391 -2.462575812
C 1.134223447 1.086336256 1.448271627
H 0.428799040 2.989071104 1.755842355
N 2.827239381 0.107298158 2.825940477
C 3.247143045 -2.388081958 1.844792028
O 4.702828861 -3.899890448 2.619975240
O 1.697391557 -2.810997468 -0.170745694
H -3.087813243 -2.002348132 1.374216075
H -3.075559900 -2.630650794 -1.912898116
H -3.709692575 0.463128939 -0.812857000

