12

C -3.050442587 -1.749862524 -0.166482453
C -0.883444204 2.453987536 -0.213314231
C 1.643341006 3.034784070 -0.044285656
N 3.083823635 0.850360807 0.193524188
C 1.524337771 -1.110217575 0.179595867
N -0.802679596 -0.190939817 -0.057260686
H -4.371540917 -1.131750627 1.282553587
H -2.562068627 -3.728410841 0.141843826
H -3.946639343 -1.541204748 -2.006959140
H 2.573559919 4.846297171 -0.069525594
H 4.971109461 0.719127642 0.357580818
H 2.068116346 -3.066921679 0.336265898

