12

O 0.670155050 1.252562802 2.741408114
C 2.096483876 0.202602489 0.686169345
C 0.681453552 -2.154593937 -0.261813315
C -1.934466279 -1.195234691 -0.060677575
C -1.357207425 1.469045140 0.951557493
C 0.472509161 1.563537153 -1.310911705
N -0.510267420 -0.875239939 -2.459644110
H 4.133441397 0.236367964 0.923966093
H 1.220655041 -4.123545752 -0.287157774
H -3.610751371 -2.351402639 0.082847275
H -2.838459214 2.793656699 1.458744527
H 0.976453671 3.182244710 -2.464488385

