13

C 4.186718181 0.638976156 -0.237637955
C 1.718035946 -0.075743700 -0.193284552
C 0.407098068 -2.377780324 -0.599195248
N -2.146171994 -1.921129877 -0.092255560
C -2.514835432 0.451274157 0.473678391
O -4.760465413 1.499579240 0.995771925
N -0.274827576 1.643973327 0.379982539
H 4.731932193 2.569183823 0.146332851
H 5.639934560 -0.719352614 -0.681965384
H 0.011564349 3.406146491 1.020073482
H 1.120514674 -4.272621143 -0.720216824
H -3.559225570 -3.174873020 -0.272198740
H -5.168427426 2.776619419 -0.234879257

