12

C -2.287712727 -2.308668920 -1.410814817
N -0.195022741 -2.157448254 -0.140127312
C 1.925295022 -1.049728651 0.526873653
C 3.562711377 0.628511249 -1.007590839
H 5.384210603 0.898058061 -0.087548744
H 2.697380330 2.486204985 -1.234638409
H 3.896633221 -0.156553265 -2.905214923
C 1.711820391 -3.806935897 0.940193927
H 1.367296201 -4.543821673 2.826476649
H 2.451957932 -5.183965226 -0.416582471
H -3.395003929 -4.013389288 -1.268709680
H -2.954526495 -0.661269557 -2.414431562

