17

C -2.818710650 2.327422146 1.273418235
C -2.516631674 -1.588987871 -1.524500382
N -0.103112698 -1.875700766 -1.009589130
C 1.102374910 -2.529304101 1.346634238
C 1.574069372 -0.119328778 -0.039626404
C 3.947171074 0.848770432 -1.207429906
H -4.351430074 1.303758979 2.186815978
H -2.051239675 3.656145371 2.658084194
H -3.586715869 3.418970928 -0.295699204
H -3.837347751 -3.003495346 -0.856352542
H -3.029471256 -0.429254766 -3.128060763
H -0.068276164 -2.415916868 3.039177287
H 2.371588239 -4.140047672 1.242817919
H -0.389020721 1.393075467 0.746464609
H 4.997488262 1.935699420 0.194472245
H 3.517446333 2.111734721 -2.780521817
H 5.178722295 -0.664051102 -1.891845358

