11

C -1.219791530 0.223588313 -0.351650782
C -0.717563799 -0.644916340 -3.018192596
O 0.042672926 -2.703345289 -3.569252419
H -1.093988513 0.788276293 -4.508334128
C -3.882682734 1.340480968 -0.104319496
C -4.315385646 2.428752776 2.393353462
N -4.622905464 3.277645511 4.363086755
H -5.312053244 -0.111376905 -0.433924790
H -4.189135443 2.823978148 -1.508877732
H 0.175165517 1.683640304 0.098969474
H -0.939552951 -1.352824867 0.942279731

