16

C 4.206339415 -1.413818839 0.340231942
C 0.269822239 -0.107226802 1.210995328
C -0.588926495 0.193350295 -1.421744577
O -0.170009721 -1.756685607 -2.846458689
C -3.575699446 0.496958797 -0.766310513
C -4.262990211 2.686115200 0.749251521
N -4.708195305 4.425784825 1.966555794
H 5.533065804 -0.295082567 -0.767034788
H 3.986735212 -0.414095591 2.144058732
H 4.961443493 -3.266625743 0.829817537
H 0.508583844 1.497211470 2.475792632
H -0.103242447 -1.928275404 2.079412562
H -0.036483506 2.086372064 -2.142638414
H 2.606345892 -1.862386531 -1.049087184
H -4.290194255 -1.243260020 0.073050670
H -4.392609795 0.665803955 -2.647823415

