14

C -3.105110984 -0.331479921 0.680437919
C -0.393284585 0.421425102 0.465239309
C 0.643005676 2.084636162 -1.546646025
C 1.537015924 -0.608710907 -1.379453508
C 3.063374228 -1.001817102 2.001717021
O 0.986656680 0.520315471 2.720868398
H -3.270201540 -2.183517291 1.571855388
H -4.117635312 1.041226150 1.839736311
H -3.997285628 -0.403881168 -1.176229016
H 1.917884537 3.605939864 -1.049231351
H -0.614635784 2.455912506 -3.117285280
H 1.264526393 -2.061487036 -2.785895990
H 3.651553034 -0.483171525 -0.360114922
H 2.425675168 -2.987052158 2.014578931

