16

C 4.163374583 0.551217974 0.088407360
N 1.653403438 1.482277702 0.662287950
C -0.058709992 -0.444349766 1.435693477
C -2.880743914 -0.188584860 1.174803633
C -3.549668998 1.113659126 -1.285030319
C -2.309087664 -0.561034232 -2.691135390
C -1.452097623 -2.094233193 -0.436374517
H 5.045762563 -0.519492666 1.639583115
H 5.395445630 2.133252447 -0.387883540
H 4.067241796 -0.690290781 -1.557922550
H 0.477192791 -1.522714269 3.121914183
H -4.151887278 -0.630991666 2.711381840
H 1.712065469 2.877295523 1.962039613
H -4.415615359 2.923384904 -1.677701839
H -1.780029866 -0.629869925 -4.665270497
H -1.514099953 -4.125959499 -0.231306352

