13

C -2.684828354 0.585004387 0.721983283
C -0.030045889 0.248710578 -0.269328832
C 0.985468137 -2.442399603 0.030168873
C 1.715057133 2.246464730 -0.069775208
O 3.329426577 2.233806305 -1.870681314
H -4.015184339 -0.492616055 -0.431413589
H -2.879416268 -0.100908106 2.667695435
H -3.294471481 2.554522610 0.668526597
H 1.588505613 0.710275069 -2.553982791
H 2.958780570 -2.616828770 -0.534532675
H -0.116246956 -3.755603490 -1.117952243
H 0.821091103 -3.059843275 2.001684782
H 1.741066189 3.813766123 1.279797591

