13

N 2.070323962 -2.878546938 1.279449674
C 2.999153700 -0.806938718 1.418655971
C 1.379524996 1.462255657 0.974614759
C 0.714618869 1.452047847 -1.869614242
C -1.855641928 0.406926443 -1.104841777
C -1.821663254 -1.585342344 0.789600273
N -1.339640361 0.838868607 1.726361455
H 2.043561377 3.207846001 1.814676426
H 1.914893573 0.323597571 -3.107496442
H 0.538743986 3.358541550 -2.618912420
H -3.590774774 1.081420889 -1.967498521
H 0.791236757 -4.290419227 1.375710546
H -3.524415737 -2.532595078 1.423052891

