11

C -2.804751942 0.609771327 0.771009790
C -0.381445243 0.738518746 0.125483975
C 1.520095373 -1.302577390 0.724457728
O 2.643340380 -2.322237966 -1.458743733
C 0.545040648 2.898220857 -1.245249335
N 1.302635461 4.620050050 -2.326717732
H -4.124199691 2.104187231 0.316068713
H 1.349469129 -3.041020034 -2.506603162
H -3.518982964 -1.014376846 1.793282383
H 3.065507313 -0.512789562 1.838639665
H 0.583699928 -2.754644512 1.867193881

