14

C 3.155868820 -1.665172218 -1.026061892
C 1.054723368 -0.893596248 0.708035422
O 1.072241015 1.667649517 1.637323985
C -0.919463820 0.929276185 0.038751215
O -0.978040341 2.093976360 -2.298921354
C -3.520325293 0.836282404 1.155369180
H 2.769188846 -3.536565883 -1.803076947
H 4.940986509 -1.751276606 0.002999184
H 3.388689503 -0.359032052 -2.602279750
H 0.609629767 -2.267851762 2.174665700
H 0.699215126 2.661393180 -2.696287785
H -4.793598132 -0.176398148 -0.108662824
H -4.231456464 2.754495621 1.403736886
H -3.481510621 -0.112511175 2.980711201

