14

C 2.887750017 -1.684955855 -1.071568292
C 1.324455656 -0.169513914 0.818170702
O 2.239635146 2.169221456 1.427987646
C -1.092118553 0.883470282 -0.153690934
O -0.913477792 2.647059796 -1.817674156
C -3.627327028 0.261746060 0.813653500
H 2.038674810 -3.517234495 -1.512034633
H 4.746492495 -1.996450297 -0.237153221
H 3.147628990 -0.628335637 -2.825967633
H 0.898428221 -1.382598390 2.466215481
H 0.903814564 3.154966551 -1.502229014
H -3.941491786 -1.773937125 0.701840333
H -5.106258687 1.303984725 -0.160664288
H -3.638210963 0.760913285 2.819308124

