15

C -4.394566965 -0.685090254 2.254998430
C -3.605579172 -1.186454192 -0.061498510
O 2.591520386 3.602157955 -2.508991190
C 3.974403010 2.143522107 -1.470188103
C 3.161633410 0.104716131 0.358187704
O 0.611242894 0.047787621 0.951782540
C -0.958802986 -0.881974621 -0.990494185
H -3.108697079 0.006778391 3.687560764
H -6.355301836 -0.948868091 2.776746276
H -4.926603633 -1.867643125 -1.478372998
H 6.051321606 2.192323793 -1.797426628
H -0.938233601 0.402103257 -2.616169123
H 3.837628091 -1.711873492 -0.413949950
H 4.212172301 0.412786502 2.115596074
H -0.244884166 -2.724189062 -1.647518718

