19

C 4.372085498 0.634848427 -1.265264747
C 1.961858879 -0.934491962 -1.134491126
C 0.272598814 -0.294328642 1.126189181
C -0.927749702 2.353545134 0.914065988
C -3.457020677 2.239939524 -0.259609914
C -4.050311268 -0.490352106 -0.277610538
C -2.089454113 -1.971005097 1.271090678
H 5.564433595 0.037637071 -2.838228195
H 5.475474019 0.438887362 0.469494878
H 3.972203860 2.641746132 -1.527511415
H 0.894253702 -0.708323020 -2.894546701
H 2.464733520 -2.937297465 -1.023798075
H 1.410564995 -0.458260210 2.844088991
H 0.275219864 3.895768275 0.264108255
H -1.596457127 2.976091255 2.803747477
H -2.737124918 -2.136332549 3.226461353
H -6.035900685 -0.939065836 0.048943585
H -3.772791324 -0.822154207 -2.326231846
H -1.765014008 -3.883615408 0.569685663

