18

C 2.797844237 1.285624392 1.283470860
C 2.947936056 -0.881354054 -0.308210249
C 0.155812209 -2.409486300 -0.838495273
C -1.466991310 -2.734066944 1.481196287
C -2.169246419 -1.214304238 -0.692566257
C -2.100911334 3.076203503 0.561125260
H 3.145854462 3.140687818 0.496014576
H -0.208373278 1.866139187 0.960330678
H 3.190045858 1.102363401 3.284580844
H 4.016257855 -2.449084831 0.485306368
H 3.578012358 -0.465741731 -2.223045108
H 0.574633060 -3.868856383 -2.208022447
H -0.734621110 -1.723216101 3.141462549
H -2.454484799 -4.478545979 1.917927245
H -3.798693648 -0.937529356 -1.872982263
H -3.810954437 2.497508779 1.534955745
H -2.492483601 3.493153223 -1.411010271
H -1.401388410 4.808582791 1.449201939

