13

C -3.540952731 -0.120422608 -0.910099490
C -1.531734593 0.468782583 1.007417589
C 0.290598984 2.564574347 0.520777264
C 1.607543017 0.435006545 0.469727257
C 3.736455651 -0.694327632 -1.012638940
H -5.189185708 1.036851566 -0.450789669
H -4.117441880 -2.099758280 -0.872764814
H -2.911250028 0.381190074 -2.803697399
H 0.361713139 -1.407732768 1.262080596
H -1.999922499 0.021946731 2.960720885
H 4.890867760 -1.975753355 0.115481145
H 3.039666971 -1.720761328 -2.662601981
H 4.905897356 0.865502067 -1.677645676

