11

O 3.087675123 0.183289375 2.669414217
C 1.048221652 -0.208436414 1.453769558
C 1.394709551 -1.332968513 -1.017025108
C -0.669517796 0.598753827 -1.650980828
N -3.042495986 0.046950661 -0.507834171
C -1.244958809 1.235161391 1.204075056
H 3.793553707 -0.624307837 0.604086804
H 0.998439708 -3.292506450 -1.479795490
H -0.536598788 2.143709473 -2.983666242
H -3.224645837 -1.828535356 -0.150464756
H -1.681859407 3.034379253 2.060886235

