11

O 3.181872528 0.217392487 0.890081452
C 1.148150860 -1.011192884 -0.328698509
C -1.206012819 0.449866519 0.456480580
O -1.024895968 2.993327806 -0.211408348
C -5.076511412 -1.525170724 -1.763710740
N -3.346874777 -0.596968281 -0.771718966
H 4.748431051 -0.356357126 0.189754430
H 1.317850402 -0.922166167 -2.389035117
H 0.969932793 -2.985754521 0.262118015
H -1.494910464 0.239199832 2.498821591
H 0.657370939 3.519628645 0.246140286

