11

O 3.126289333 0.402188824 1.076536722
C 1.243745434 -0.941701645 -0.259187787
C -1.232537676 0.390443344 0.372275272
O -1.168378432 2.941996269 -0.341826644
C -3.333323797 -0.860249706 -0.944183309
N -4.931452576 -1.919956508 -1.950256944
H 4.759033209 -0.029959378 0.426840906
H 1.550979092 -0.854330347 -2.303386191
H 1.146927886 -2.922688956 0.332138547
H -1.575409755 0.197345346 2.410637124
H 0.414127339 3.596912756 0.275024958

