11

O 3.554196555 -0.063557952 0.648613495
C 1.324802950 -0.829701470 -0.582223731
C -0.911224218 0.538306893 0.591805058
O -1.117262040 3.021860706 0.220363420
C -4.093132311 -1.048911780 0.023774625
N -3.277651672 -0.992304882 -2.043302863
H 3.748737529 -0.993299993 2.191562668
H 1.509627954 -0.313116507 -2.568007374
H 1.013591400 -2.866476709 -0.479900239
H -1.121569179 0.135399047 2.591628063
H -0.755715707 3.433611959 -1.515486558

