13

C 4.533690417 0.318833722 0.297231545
N 2.413997889 1.356907280 -0.177751268
C 0.168705470 0.350734454 0.515717333
C -0.385728856 -2.010442151 1.893905405
C -4.133176835 1.307509329 0.180647632
O -1.747270784 1.738132257 -0.181703157
H 4.752466259 -1.473176818 1.301454628
H 6.242188121 1.259873094 -0.335393941
H 1.329468325 -3.021295394 2.398129178
H -1.448966970 -1.614639278 3.633457187
H -1.576854016 -3.268816087 0.748919515
H -5.374475774 2.732793703 -0.569920480
H -4.763802802 -0.366656568 1.156822908

