13

C 4.304715156 0.459438322 1.346282503
N 2.340484935 -1.195948100 0.391815796
C 0.101605112 -0.492218872 0.496622048
C -2.409555010 -1.608654157 -0.251337826
C -3.462529380 0.879878159 0.790771959
O -0.931233205 1.723307658 1.413900305
H 3.604263526 2.259954596 2.078773419
H 5.655666265 0.835796650 -0.165892877
H 5.325943884 -0.516651652 2.849385440
H -2.923885738 -3.312149718 0.778555636
H -2.638477057 -1.913414276 -2.271703326
H -4.342185005 2.142355957 -0.578517430
H -4.624813483 0.738305433 2.485581281

