13

C -3.107208296 -0.474074686 -0.402816931
N -2.020719086 0.847718403 1.776046456
C -0.783734657 0.206854524 -1.818872903
C 1.380959922 -1.002107666 -1.151831083
C 3.190340032 0.658073577 0.213673638
O 2.037107604 0.427511154 2.551336513
H -3.402681867 -2.499130051 -0.152060157
H -4.829509392 0.475336834 -1.021753184
H -1.568794598 -0.385332864 3.179663457
H -0.634088379 2.170521569 -2.395318041
H 1.380082012 -2.978622317 -0.597715857
H 5.133107424 -0.058604508 0.368149867
H 3.244253881 2.586749130 -0.542775887

