14

N 2.470708324 -3.063469300 -1.935770246
C 1.710145904 -0.932235704 -1.225441131
O 3.161103852 1.146519082 -0.857268587
C 1.513983186 3.276586055 -0.440335364
C -1.156402217 2.514795559 -0.404762102
C -3.089374932 -1.809098106 -1.740700489
C -0.993872731 -0.233611194 -0.593648656
H 4.366922049 -3.064827654 -2.248358878
H 1.732819330 4.620506589 -2.006343297
H 2.066372507 4.269448067 1.286246830
H -3.091512269 -1.583611979 -3.788086124
H -2.794552315 -3.803817735 -1.329737724
H -4.916120756 -1.203857927 -1.011412546
H -1.109739834 -0.394242091 1.520114308

