14

C -1.256930526 -2.234109473 0.624654640
C -1.984359905 0.062114561 -0.911552614
C -0.371908174 2.265560261 -0.043243642
N 2.225781998 1.428152903 0.185671053
C 3.091526480 -0.998905639 0.257107803
O 1.338637691 -2.853286628 0.266875665
O 5.302582182 -1.524617148 0.287434222
H -1.603024587 -1.909566170 2.640677605
H -2.300963429 -3.912720705 0.052647260
H -3.985333281 0.488610459 -0.657744481
H -1.658373569 -0.326028496 -2.913105134
H -1.068180523 2.974629949 1.774598189
H -0.467161387 3.824246072 -1.392358278
H 3.620243125 2.714223100 0.219206794

