16

C 2.106362702 -1.283588401 -2.931965508
C 0.023667289 -0.308786559 3.120343291
C 1.706487489 1.541087944 3.064686983
C 0.189599340 0.312395822 -3.121890108
C -1.904909545 0.701107176 -1.245617454
C -1.878122318 -0.950997737 1.112755251
H 2.377435260 -2.475080961 -1.288016577
H 3.501389368 -1.438851266 -4.421450587
H -0.055615093 -1.506544828 4.789252953
H 1.909211582 2.786845578 1.451309569
H 2.974574561 1.860894932 4.638876579
H 0.051689131 1.475397171 -4.811402055
H -3.691886422 0.391311314 -2.242946475
H -1.945667782 2.698633483 -0.697157252
H -1.628648631 -2.935058857 0.571222558
H -3.750771630 -0.872859886 1.990951043

