12

C 3.147679295 0.385202227 -2.041120361
C 1.238177621 1.656746288 -1.050883085
C -1.249438858 0.549160364 -0.351959752
O -1.392123290 -2.191458941 -0.689383240
C -1.936313902 -2.324054314 1.852171125
C -1.841223677 0.118953327 2.417221006
H 2.998934303 -1.619935614 -2.421346920
H 4.910303177 1.318422611 -2.497792219
H 1.403656081 3.671617787 -0.687261436
H -2.791951107 1.422174811 -1.416127631
H -2.297679974 -4.122981309 2.751702076
H -2.077282349 1.290951587 4.059420012

