15

C -3.932129100 -0.023735489 -2.093709002
C -2.056298850 -0.383404115 -0.004725752
O 4.268676548 2.139283016 4.577901032
C 3.717805868 1.491506633 2.477324860
C 2.242505886 -0.885905667 1.891383962
C 0.440543178 -0.523399958 -0.258638122
O 1.720622924 -0.317504905 -2.486957512
H -3.127182418 -0.322053495 -3.973504578
H -5.492974527 -1.359610968 -1.908403819
H -4.748428009 1.874060616 -2.068275310
H -2.795054397 -0.540992080 1.897462380
H 4.287634602 2.628784330 0.813398822
H 3.621854986 -2.338093864 1.361836498
H 1.277369426 -1.506105258 3.598839974
H 0.560707101 0.073760697 -3.826639523

