10

N 3.687385114 -0.091993096 0.465205559
C 1.288736147 -0.870461389 -0.076007298
C -0.649139481 1.121087374 0.168369628
N -2.941549764 0.553781255 -0.357340161
C -4.968280428 -0.066716138 -1.140337296
O 0.791359929 -3.028932174 -0.667261236
H 5.091391436 -1.330417610 0.157492081
H 4.121641040 1.742568087 0.650017334
H -0.233068408 3.031102090 0.767644282
H -6.445672999 -0.883625712 0.024442738

