16

C 2.783245574 -1.496020924 -0.046730376
C 1.271822343 0.022208912 1.438147419
C 0.364414559 2.625823507 0.592513308
C -1.992264799 1.888460764 -0.901842427
C -2.437368585 -0.691599964 0.286934919
O -2.736922566 -2.664049511 -0.996944462
H 1.231794561 -3.472961500 -1.511031642
H 3.554678945 -0.771931787 -1.804829914
H 3.872953517 -2.998574196 0.817883671
H 1.185617572 -0.424066070 3.434453813
H -0.106347739 3.770842921 2.240840942
H 1.767416984 3.670954909 -0.500316878
H -3.613259888 3.160444489 -0.750323657
H -1.583855319 1.604806788 -2.903258792
H -3.119595470 -0.708486783 2.243796569
H -0.418112828 -3.527849445 -1.665625885

