13

C -4.047589420 0.009224131 -0.619103683
C -1.393426483 -0.932056615 -0.873193706
O -0.756530613 -2.680093078 -2.179695282
C 0.639959078 0.470107395 0.668860606
O 0.084320014 2.221379050 2.015206131
C 3.324913155 -0.430796518 0.427474323
O 4.957626284 0.991671767 1.923452709
H -4.633479106 -0.072292701 1.357107383
H -4.142535175 1.994064499 -1.173289944
H -5.296416176 -1.126870314 -1.789397900
H 3.856194311 -0.337025398 -1.574962740
H 3.946513695 2.250602776 2.772786960
H 3.380532009 -2.438587364 0.942234793

