13

C -3.798991356 0.034435685 -0.558751915
C -1.213597821 -1.034425933 -0.927385307
O -0.739566164 -2.964153345 -2.033565860
C 0.926995664 0.520431179 0.257724383
O 0.590160486 2.607216603 1.438236860
C 3.214408132 -0.780083744 0.989141689
O 4.553579482 0.551248739 2.503749543
H -4.180616444 0.222539440 1.459758950
H -3.858309878 1.948270520 -1.326592823
H -5.194413012 -1.171180310 -1.464197728
H 2.459453852 0.587766694 -1.542093429
H 3.305789920 2.038590094 2.783386472
H 3.878619407 -2.592835768 0.312541426

