11

C -2.334129880 -1.007438867 -0.154051834
C -0.079143506 -0.243722514 1.387974926
C 2.333061372 -0.082651726 -0.100260667
O 1.386921592 1.241703642 -2.275421041
C -1.506614993 1.642270816 -0.211063851
H -4.026657868 -1.298272971 0.968174913
H -2.217128753 -2.139349951 -1.854865364
H -0.174501543 -0.289268466 3.430236379
H 3.160288001 -1.881716955 -0.691124736
H 3.776576275 1.034775079 0.871561039
H -0.039068689 2.897370159 -1.516731018

