13

C -2.014772553 -0.931899295 2.452842608
C -2.846835085 -1.132252481 -0.241779516
N -1.053986582 -0.813728258 -1.922638237
C 1.637619614 -0.281904487 -1.569129666
C 2.127673352 2.330923658 -0.495605772
O 4.083354849 2.917991834 0.475277893
H 0.014136607 -0.923107666 2.880923193
H -2.917668199 -2.440866884 3.528958903
H -2.839482878 0.816995519 3.191341398
H 2.552289804 -1.683043641 -0.367751910
H -1.603205472 -0.917622226 -3.744585649
H 2.565981664 -0.366262466 -3.412211264
H 0.544361386 3.691418658 -0.700744613

