13

C -2.022879856 -0.716567800 2.345980088
C -1.497639928 -1.808422926 -0.229440568
N -1.400779653 0.117621770 -2.123585817
C 1.296673715 -0.168254468 -1.578092920
C 2.520763258 2.042302725 -0.310788913
O 4.736154181 2.472611354 -0.526353203
H -1.878014282 1.333958730 2.543137539
H -0.955568493 -1.679982096 3.822351961
H -4.005694758 -1.224211581 2.653480613
H 1.318106686 -2.045574087 -0.308690296
H -1.716551641 -0.653027479 -3.847158982
H 2.397240346 -0.900835070 -3.152716379
H 1.257786307 3.274063838 0.801410211

