26

C     3.86159  -0.54136  -1.71985
N     2.46289  -0.18190  -1.50764
C     1.91115  -0.14714  -0.28657
O     2.53985  -0.37343   0.75148
C     0.37929   0.05150  -0.21047
N    -0.05452   1.27267  -0.01597
C    -1.48084   1.36839   0.15217
C    -1.88887   1.70744   1.49637
N    -2.29091   1.84456   2.58520
C    -2.10726  -0.63017  -0.28032
C    -2.74065  -0.54330  -1.65358
C    -0.81168  -1.28221  -0.11636
C    -0.55831  -2.00470   1.22149
H     4.11820  -1.46468  -1.16715
H     4.55880   0.24847  -1.39269
H     4.03563  -0.72853  -2.79558
H     1.90945   0.07417  -2.31359
H    -1.93863   2.08740  -0.61650
H    -2.83066  -0.68051   0.56104
H    -3.33967  -1.42842  -1.98221
H    -3.42268   0.31978  -1.69176
H    -1.95890  -0.39576  -2.41866
H    -0.49335  -1.90803  -0.99399
H    -1.00217  -1.42205   2.05029
H    -0.94497  -3.04908   1.32198
H     0.52336  -2.04978   1.38228
26

C     3.86352  -0.54244  -1.72070
N     2.46576  -0.18229  -1.50882
C     1.91647  -0.14346  -0.28684
O     2.54200  -0.37418   0.75209
C     0.39429   0.06930  -0.21245
N    -0.06449   1.26574  -0.01608
C    -1.47392   1.39089   0.15558
C    -1.88794   1.71120   1.49779
N    -2.29212   1.84320   2.58636
C    -2.11383  -0.64851  -0.28279
C    -2.74154  -0.54407  -1.65501
C    -0.82886  -1.30136  -0.11585
C    -0.55945  -2.00605   1.22271
H     4.11862  -1.46500  -1.16736
H     4.55944   0.24811  -1.39295
H     4.03616  -0.72892  -2.79581
H     1.91041   0.07513  -2.31370
H    -1.93743   2.09087  -0.61681
H    -2.83049  -0.67853   0.56069
H    -3.34252  -1.42585  -1.98481
H    -3.42021   0.32159  -1.69064
H    -1.95848  -0.39685  -2.41854
H    -0.49236  -1.90714  -0.99356
H    -1.00345  -1.42267   2.05032
H    -0.94102  -3.05057   1.32515
H     0.52325  -2.04610   1.38096
26

C     3.86545  -0.54353  -1.72154
N     2.46862  -0.18268  -1.50999
C     1.92179  -0.13978  -0.28710
O     2.54416  -0.37494   0.75270
C     0.40929   0.08709  -0.21442
N    -0.07446   1.25882  -0.01620
C    -1.46701   1.41338   0.15899
C    -1.88700   1.71497   1.49921
N    -2.29333   1.84184   2.58753
C    -2.12040  -0.66685  -0.28525
C    -2.74243  -0.54485  -1.65643
C    -0.84604  -1.32050  -0.11535
C    -0.56059  -2.00740   1.22393
H     4.11905  -1.46533  -1.16758
H     4.56007   0.24774  -1.39320
H     4.03670  -0.72930  -2.79603
H     1.91137   0.07609  -2.31381
H    -1.93623   2.09434  -0.61712
H    -2.83033  -0.67654   0.56035
H    -3.34537  -1.42328  -1.98741
H    -3.41774   0.32341  -1.68952
H    -1.95806  -0.39794  -2.41842
H    -0.49138  -1.90625  -0.99313
H    -1.00472  -1.42329   2.05035
H    -0.93707  -3.05206   1.32832
H     0.52314  -2.04243   1.37964
26

C     3.86737  -0.54462  -1.72239
N     2.47148  -0.18308  -1.51116
C     1.92711  -0.13610  -0.28736
O     2.54632  -0.37569   0.75331
C     0.42428   0.10488  -0.21640
N    -0.08443   1.25190  -0.01631
C    -1.46009   1.43588   0.16241
C    -1.88607   1.71873   1.50062
N    -2.29453   1.84048   2.58869
C    -2.12697  -0.68519  -0.28772
C    -2.74333  -0.54563  -1.65786
C    -0.86321  -1.33965  -0.11485
C    -0.56174  -2.00875   1.22515
H     4.11947  -1.46565  -1.16779
H     4.56070   0.24738  -1.39346
H     4.03723  -0.72969  -2.79626
H     1.91232   0.07705  -2.31392
H    -1.93504   2.09781  -0.61742
H    -2.83016  -0.67455   0.56000
H    -3.34822  -1.42072  -1.99001
H    -3.41527   0.32522  -1.68840
H    -1.95764  -0.39903  -2.41831
H    -0.49039  -1.90536  -0.99270
H    -1.00599  -1.42391   2.05039
H    -0.93312  -3.05356   1.33149
H     0.52304  -2.03875   1.37833
26

C     3.86930  -0.54571  -1.72323
N     2.47434  -0.18347  -1.51233
C     1.93243  -0.13243  -0.28763
O     2.54848  -0.37645   0.75391
C     0.43928   0.12268  -0.21838
N    -0.09440   1.24497  -0.01643
C    -1.45317   1.45837   0.16582
C    -1.88514   1.72249   1.50204
N    -2.29574   1.83913   2.58986
C    -2.13355  -0.70353  -0.29019
C    -2.74422  -0.54640  -1.65928
C    -0.88039  -1.35879  -0.11434
C    -0.56288  -2.01010   1.22637
H     4.11990  -1.46597  -1.16801
H     4.56134   0.24701  -1.39372
H     4.03777  -0.73007  -2.79649
H     1.91328   0.07800  -2.31402
H    -1.93384   2.10127  -0.61773
H    -2.83000  -0.67256   0.55966
H    -3.35106  -1.41815  -1.99261
H    -3.41280   0.32704  -1.68728
H    -1.95722  -0.40012  -2.41819
H    -0.48941  -1.90447  -0.99227
H    -1.00726  -1.42454   2.05042
H    -0.92917  -3.05505   1.33467
H     0.52293  -2.03507   1.37701
26

C     3.87123  -0.54680  -1.72408
N     2.47720  -0.18386  -1.51350
C     1.93775  -0.12875  -0.28789
O     2.55064  -0.37720   0.75452
C     0.45428   0.14047  -0.22035
N    -0.10437   1.23805  -0.01654
C    -1.44625   1.48086   0.16923
C    -1.88420   1.72625   1.50345
N    -2.29695   1.83777   2.59102
C    -2.14012  -0.72187  -0.29266
C    -2.74511  -0.54718  -1.66071
C    -0.89757  -1.37794  -0.11384
C    -0.56402  -2.01145   1.22759
H     4.12032  -1.46629  -1.16823
H     4.56197   0.24665  -1.39397
H     4.03830  -0.73046  -2.79672
H     1.91423   0.07896  -2.31413
H    -1.93264   2.10474  -0.61803
H    -2.82983  -0.67058   0.55931
H    -3.35391  -1.41558  -1.99521
H    -3.41032   0.32885  -1.68616
H    -1.95680  -0.40121  -2.41808
H    -0.48842  -1.90358  -0.99184
H    -1.00853  -1.42516   2.05045
H    -0.92522  -3.05654   1.33784
H     0.52282  -2.03140   1.37569
26

C     3.87315  -0.54788  -1.72493
N     2.48006  -0.18425  -1.51467
C     1.94307  -0.12507  -0.28815
O     2.55280  -0.37796   0.75513
C     0.46928   0.15827  -0.22233
N    -0.11435   1.23112  -0.01666
C    -1.43933   1.50336   0.17265
C    -1.88327   1.73002   1.50487
N    -2.29815   1.83641   2.59219
C    -2.14669  -0.74021  -0.29513
C    -2.74601  -0.54796  -1.66213
C    -0.91475  -1.39708  -0.11333
C    -0.56516  -2.01281   1.22881
H     4.12075  -1.46661  -1.16844
H     4.56261   0.24628  -1.39423
H     4.03884  -0.73084  -2.79695
H     1.91519   0.07992  -2.31424
H    -1.93145   2.10821  -0.61834
H    -2.82966  -0.66859   0.55897
H    -3.35676  -1.41302  -1.99782
H    -3.40785   0.33067  -1.68504
H    -1.95638  -0.40230  -2.41796
H    -0.48743  -1.90269  -0.99141
H    -1.00981  -1.42578   2.05048
H    -0.92127  -3.05803   1.34101
H     0.52272  -2.02772   1.37437
26

C     3.87508  -0.54897  -1.72577
N     2.48293  -0.18465  -1.51584
C     1.94839  -0.12139  -0.28842
O     2.55495  -0.37871   0.75574
C     0.48428   0.17606  -0.22430
N    -0.12432   1.22420  -0.01677
C    -1.43241   1.52585   0.17606
C    -1.88233   1.73378   1.50629
N    -2.29936   1.83505   2.59335
C    -2.15326  -0.75855  -0.29760
C    -2.74690  -0.54874  -1.66356
C    -0.93192  -1.41623  -0.11283
C    -0.56631  -2.01416   1.23004
H     4.12117  -1.46693  -1.16866
H     4.56324   0.24592  -1.39448
H     4.03937  -0.73123  -2.79717
H     1.91615   0.08088  -2.31435
H    -1.93025   2.11168  -0.61865
H    -2.82950  -0.66660   0.55862
H    -3.35961  -1.41045  -2.00042
H    -3.40538   0.33249  -1.68392
H    -1.95596  -0.40340  -2.41784
H    -0.48645  -1.90179  -0.99098
H    -1.01108  -1.42640   2.05051
H    -0.91732  -3.05953   1.34418
H     0.52261  -2.02404   1.37306
26

C     3.87701  -0.55006  -1.72662
N     2.48579  -0.18504  -1.51702
C     1.95371  -0.11772  -0.28868
O     2.55711  -0.37947   0.75635
C     0.49928   0.19386  -0.22628
N    -0.13429   1.21727  -0.01689
C    -1.42549   1.54835   0.17948
C    -1.88140   1.73754   1.50770
N    -2.30057   1.83370   2.59452
C    -2.15983  -0.77689  -0.30007
C    -2.74779  -0.54951  -1.66498
C    -0.94910  -1.43538  -0.11232
C    -0.56745  -2.01551   1.23126
H     4.12160  -1.46725  -1.16887
H     4.56388   0.24555  -1.39474
H     4.03991  -0.73161  -2.79740
H     1.91710   0.08183  -2.31446
H    -1.92905   2.11515  -0.61895
H    -2.82933  -0.66462   0.55828
H    -3.36246  -1.40788  -2.00302
H    -3.40291   0.33430  -1.68280
H    -1.95554  -0.40449  -2.41773
H    -0.48546  -1.90090  -0.99055
H    -1.01235  -1.42703   2.05054
H    -0.91337  -3.06102   1.34736
H     0.52250  -2.02037   1.37174
26

C     3.87893  -0.55115  -1.72746
N     2.48865  -0.18543  -1.51819
C     1.95903  -0.11404  -0.28894
O     2.55927  -0.38022   0.75696
C     0.51427   0.21165  -0.22826
N    -0.14426   1.21035  -0.01700
C    -1.41857   1.57084   0.18289
C    -1.88046   1.74130   1.50912
N    -2.30178   1.83234   2.59568
C    -2.16641  -0.79523  -0.30254
C    -2.74869  -0.55029  -1.66640
C    -0.96628  -1.45452  -0.11182
C    -0.56859  -2.01686   1.23248
H     4.12202  -1.46757  -1.16909
H     4.56451   0.24519  -1.39500
H     4.04044  -0.73200  -2.79763
H     1.91806   0.08279  -2.31456
H    -1.92786   2.11862  -0.61926
H    -2.82917  -0.66263   0.55793
H    -3.36531  -1.40532  -2.00562
H    -3.40044   0.33612  -1.68169
H    -1.95512  -0.40558  -2.41761
H    -0.48447  -1.90001  -0.99012
H    -1.01362  -1.42765   2.05058
H    -0.90942  -3.06251   1.35053
H     0.52239  -2.01669   1.37042
26

C     3.88086  -0.55223  -1.72831
N     2.49151  -0.18582  -1.51936
C     1.96435  -0.11036  -0.28921
O     2.56143  -0.38098   0.75756
C     0.52927   0.22945  -0.23023
N    -0.15423   1.20343  -0.01712
C    -1.41165   1.59333   0.18630
C    -1.87953   1.74507   1.51053
N    -2.30298   1.83098   2.59685
C    -2.17298  -0.81357  -0.30501
C    -2.74958  -0.55107  -1.66783
C    -0.98345  -1.47367  -0.11132
C    -0.56974  -2.01821   1.23370
H     4.12244  -1.46789  -1.16931
H     4.56515   0.24483  -1.39525
H     4.04098  -0.73239  -2.79786
H     1.91902   0.08375  -2.31467
H    -1.92666   2.12209  -0.61956
H    -2.82900  -0.66064   0.55759
H    -3.36816  -1.40275  -2.00822
H    -3.39796   0.33793  -1.68057
H    -1.95470  -0.40667  -2.41750
H    -0.48349  -1.89912  -0.98969
H    -1.01490  -1.42827   2.05061
H    -0.90547  -3.06401   1.35370
H     0.52229  -2.01301   1.36910
26

C     3.88279  -0.55332  -1.72916
N     2.49437  -0.18622  -1.52053
C     1.96967  -0.10668  -0.28947
O     2.56359  -0.38174   0.75817
C     0.54427   0.24724  -0.23221
N    -0.16420   1.19650  -0.01723
C    -1.40473   1.61583   0.18972
C    -1.87860   1.74883   1.51195
N    -2.30419   1.82963   2.59801
C    -2.17955  -0.83191  -0.30748
C    -2.75047  -0.55184  -1.66925
C    -1.00063  -1.49281  -0.11081
C    -0.57088  -2.01956   1.23492
H     4.12287  -1.46821  -1.16952
H     4.56578   0.24446  -1.39551
H     4.04151  -0.73277  -2.79809
H     1.91997   0.08471  -2.31478
H    -1.92546   2.12556  -0.61987
H    -2.82884  -0.65865   0.55724
H    -3.37101  -1.40019  -2.01082
H    -3.39549   0.33975  -1.67945
H    -1.95428  -0.40776  -2.41738
H    -0.48250  -1.89823  -0.98926
H    -1.01617  -1.42890   2.05064
H    -0.90152  -3.06550   1.35687
H     0.52218  -2.00934   1.36779
26

C     3.88471  -0.55441  -1.73000
N     2.49723  -0.18661  -1.52170
C     1.97499  -0.10300  -0.28974
O     2.56574  -0.38249   0.75878
C     0.55927   0.26503  -0.23419
N    -0.17417   1.18958  -0.01734
C    -1.39781   1.63832   0.19313
C    -1.87766   1.75259   1.51337
N    -2.30540   1.82827   2.59918
C    -2.18612  -0.85025  -0.30994
C    -2.75136  -0.55262  -1.67068
C    -1.01781  -1.51196  -0.11031
C    -0.57202  -2.02091   1.23614
H     4.12329  -1.46853  -1.16974
H     4.56641   0.24410  -1.39576
H     4.04205  -0.73316  -2.79831
H     1.92093   0.08566  -2.31489
H    -1.92426   2.12903  -0.62018
H    -2.82867  -0.65667   0.55690
H    -3.37386  -1.39762  -2.01342
H    -3.39302   0.34156  -1.67833
H    -1.95386  -0.40885  -2.41726
H    -0.48152  -1.89734  -0.98883
H    -1.01744  -1.42952   2.05067
H    -0.89757  -3.06699   1.36005
H     0.52207  -2.00566   1.36647
26

C     3.88664  -0.55550  -1.73085
N     2.50010  -0.18700  -1.52287
C     1.98031  -0.09933  -0.29000
O     2.56790  -0.38325   0.75939
C     0.57427   0.28283  -0.23616
N    -0.18414   1.18265  -0.01746
C    -1.39089   1.66082   0.19654
C    -1.87673   1.75635   1.51478
N    -2.30660   1.82691   2.60034
C    -2.19269  -0.86859  -0.31241
C    -2.75226  -0.55340  -1.67210
C    -1.03499  -1.53111  -0.10980
C    -0.57316  -2.02226   1.23737
H     4.12372  -1.46885  -1.16995
H     4.56705   0.24373  -1.39602
H     4.04258  -0.73354  -2.79854
H     1.92189   0.08662  -2.31500
H    -1.92307   2.13250  -0.62048
H    -2.82851  -0.65468   0.55655
H    -3.37671  -1.39505  -2.01603
H    -3.39055   0.34338  -1.67721
H    -1.95344  -0.40994  -2.41715
H    -0.48053  -1.89645  -0.98840
H    -1.01871  -1.43014   2.05070
H    -0.89362  -3.06849   1.36322
H     0.52197  -2.00198   1.36515
26

C     3.88857  -0.55659  -1.73169
N     2.50296  -0.18739  -1.52404
C     1.98563  -0.09565  -0.29026
O     2.57006  -0.38400   0.76000
C     0.58927   0.30062  -0.23814
N    -0.19411   1.17573  -0.01757
C    -1.38397   1.68331   0.19996
C    -1.87579   1.76012   1.51620
N    -2.30781   1.82555   2.60151
C    -2.19927  -0.88693  -0.31488
C    -2.75315  -0.55418  -1.67353
C    -1.05216  -1.55025  -0.10930
C    -0.57431  -2.02361   1.23859
H     4.12414  -1.46917  -1.17017
H     4.56768   0.24337  -1.39628
H     4.04312  -0.73393  -2.79877
H     1.92284   0.08758  -2.31510
H    -1.92187   2.13597  -0.62079
H    -2.82834  -0.65269   0.55621
H    -3.37955  -1.39249  -2.01863
H    -3.38807   0.34519  -1.67609
H    -1.95302  -0.41103  -2.41703
H    -0.47954  -1.89556  -0.98797
H    -1.01998  -1.43076   2.05073
H    -0.88967  -3.06998   1.36639
H     0.52186  -1.99831   1.36383
26

C     3.89049  -0.55767  -1.73254
N     2.50582  -0.18779  -1.52521
C     1.99095  -0.09197  -0.29053
O     2.57222  -0.38476   0.76061
C     0.60426   0.31842  -0.24012
N    -0.20408   1.16881  -0.01769
C    -1.37705   1.70580   0.20337
C    -1.87486   1.76388   1.51761
N    -2.30902   1.82420   2.60267
C    -2.20584  -0.90527  -0.31735
C    -2.75404  -0.55495  -1.67495
C    -1.06934  -1.56940  -0.10880
C    -0.57545  -2.02496   1.23981
H     4.12457  -1.46949  -1.17039
H     4.56832   0.24300  -1.39653
H     4.04365  -0.73431  -2.79900
H     1.92380   0.08854  -2.31521
H    -1.92067   2.13944  -0.62109
H    -2.82817  -0.65070   0.55586
H    -3.38240  -1.38992  -2.02123
H    -3.38560   0.34701  -1.67497
H    -1.95260  -0.41212  -2.41692
H    -0.47856  -1.89467  -0.98754
H    -1.02126  -1.43139   2.05076
H    -0.88572  -3.07147   1.36956
H     0.52175  -1.99463   1.36252
26

C     3.89242  -0.55876  -1.73339
N     2.50868  -0.18818  -1.52639
C     1.99627  -0.08829  -0.29079
O     2.57438  -0.38551   0.76122
C     0.61926   0.33621  -0.24209
N    -0.21405   1.16188  -0.01780
C    -1.37013   1.72830   0.20678
C    -1.87393   1.76764   1.51903
N    -2.31022   1.82284   2.60384
C    -2.21241  -0.92361  -0.31982
C    -2.75494  -0.55573  -1.67638
C    -1.08652  -1.58854  -0.10829
C    -0.57659  -2.02631   1.24103
H     4.12499  -1.46981  -1.17060
H     4.56895   0.24264  -1.39679
H     4.04419  -0.73470  -2.79923
H     1.92475   0.08949  -2.31532
H    -1.91948   2.14290  -0.62140
H    -2.82801  -0.64872   0.55552
H    -3.38525  -1.38735  -2.02383
H    -3.38313   0.34882  -1.67385
H    -1.95218  -0.41322  -2.41680
H    -0.47757  -1.89378  -0.98711
H    -1.02253  -1.43201   2.05080
H    -0.88177  -3.07296   1.37273
H     0.52165  -1.99095   1.36120
26

C     3.89435  -0.55985  -1.73423
N     2.51154  -0.18857  -1.52756
C     2.00159  -0.08462  -0.29105
O     2.57653  -0.38627   0.76182
C     0.63426   0.35401  -0.24407
N    -0.22403   1.15496  -0.01792
C    -1.36321   1.75079   0.21020
C    -1.87299   1.77140   1.52045
N    -2.31143   1.82148   2.60500
C    -2.21898  -0.94195  -0.32229
C    -2.75583  -0.55651  -1.67780
C    -1.10370  -1.60769  -0.10779
C    -0.57774  -2.02766   1.24225
H     4.12541  -1.47013  -1.17082
H     4.56959   0.24227  -1.39705
H     4.04472  -0.73508  -2.79945
H     1.92571   0.09045  -2.31543
H    -1.91828   2.14637  -0.62171
H    -2.82784  -0.64673   0.55517
H    -3.38810  -1.38479  -2.02643
H    -3.38066   0.35064  -1.67273
H    -1.95176  -0.41431  -2.41668
H    -0.47658  -1.89289  -0.98668
H    -1.02380  -1.43263   2.05083
H    -0.87782  -3.07446   1.37591
H     0.52154  -1.98728   1.35988
26

C     3.89628  -0.56094  -1.73508
N     2.51440  -0.18897  -1.52873
C     2.00691  -0.08094  -0.29132
O     2.57869  -0.38702   0.76243
C     0.64926   0.37180  -0.24604
N    -0.23400   1.14803  -0.01803
C    -1.35629   1.77329   0.21361
C    -1.87206   1.77517   1.52186
N    -2.31264   1.82013   2.60616
C    -2.22555  -0.96029  -0.32476
C    -2.75672  -0.55729  -1.67923
C    -1.12087  -1.62683  -0.10728
C    -0.57888  -2.02901   1.24347
H     4.12584  -1.47045  -1.17104
H     4.57022   0.24191  -1.39730
H     4.04526  -0.73547  -2.79968
H     1.92667   0.09141  -2.31554
H    -1.91708   2.14984  -0.62201
H    -2.82768  -0.64474   0.55483
H    -3.39095  -1.38222  -2.02903
H    -3.37819   0.35245  -1.67161
H    -1.95134  -0.41540  -2.41657
H    -0.47560  -1.89200  -0.98625
H    -1.02507  -1.43325   2.05086
H    -0.87387  -3.07595   1.37908
H     0.52143  -1.98360   1.35856
26

C     3.89820  -0.56203  -1.73593
N     2.51727  -0.18936  -1.52990
C     2.01223  -0.07726  -0.29158
O     2.58085  -0.38778   0.76304
C     0.66426   0.38959  -0.24802
N    -0.24397   1.14111  -0.01815
C    -1.34937   1.79578   0.21703
C    -1.87112   1.77893   1.52328
N    -2.31384   1.81877   2.60733
C    -2.23213  -0.97863  -0.32723
C    -2.75762  -0.55806  -1.68065
C    -1.13805  -1.64598  -0.10678
C    -0.58002  -2.03036   1.24469
H     4.12626  -1.47077  -1.17125
H     4.57086   0.24154  -1.39756
H     4.04579  -0.73585  -2.79991
H     1.92762   0.09237  -2.31564
H    -1.91589   2.15331  -0.62232
H    -2.82751  -0.64276   0.55448
H    -3.39380  -1.37965  -2.03163
H    -3.37571   0.35427  -1.67049
H    -1.95092  -0.41649  -2.41645
H    -0.47461  -1.89111  -0.98582
H    -1.02634  -1.43388   2.05089
H    -0.86992  -3.07744   1.38225
H     0.52133  -1.97993   1.35725
26

C     3.90013  -0.56311  -1.73677
N     2.52013  -0.18975  -1.53107
C     2.01755  -0.07358  -0.29184
O     2.58301  -0.38853   0.76365
C     0.67926   0.40739  -0.25000
N    -0.25394   1.13419  -0.01826
C    -1.34245   1.81827   0.22044
C    -1.87019   1.78269   1.52469
N    -2.31505   1.81741   2.60849
C    -2.23870  -0.99696  -0.32970
C    -2.75851  -0.55884  -1.68208
C    -1.15523  -1.66513  -0.10627
C    -0.58116  -2.03171   1.24592
H     4.12669  -1.47110  -1.17147
H     4.57149   0.24118  -1.39781
H     4.04633  -0.73624  -2.80014
H     1.92858   0.09332  -2.31575
H    -1.91469   2.15678  -0.62263
H    -2.82735  -0.64077   0.55414
H    -3.39665  -1.37709  -2.03424
H    -3.37324   0.35609  -1.66937
H    -1.95050  -0.41758  -2.41634
H    -0.47363  -1.89022  -0.98538
H    -1.02762  -1.43450   2.05092
H    -0.86597  -3.07894   1.38542
H     0.52122  -1.97625   1.35593
26

C     3.89820  -0.56203  -1.73593
N     2.51727  -0.18936  -1.52990
C     2.01223  -0.07726  -0.29158
O     2.58085  -0.38778   0.76304
C     0.66426   0.38959  -0.24802
N    -0.24397   1.14111  -0.01815
C    -1.34937   1.79578   0.21703
C    -1.87112   1.77893   1.52328
N    -2.31384   1.81877   2.60733
C    -2.23213  -0.97863  -0.32723
C    -2.75762  -0.55806  -1.68065
C    -1.13805  -1.64598  -0.10678
C    -0.58002  -2.03036   1.24469
H     4.12626  -1.47077  -1.17125
H     4.57086   0.24154  -1.39756
H     4.04579  -0.73585  -2.79991
H     1.92762   0.09237  -2.31564
H    -1.91589   2.15331  -0.62232
H    -2.82751  -0.64276   0.55448
H    -3.39380  -1.37965  -2.03163
H    -3.37571   0.35427  -1.67049
H    -1.95092  -0.41649  -2.41645
H    -0.47461  -1.89111  -0.98582
H    -1.02634  -1.43388   2.05089
H    -0.86992  -3.07744   1.38225
H     0.52133  -1.97993   1.35725
26

C     3.89628  -0.56094  -1.73508
N     2.51440  -0.18897  -1.52873
C     2.00691  -0.08094  -0.29132
O     2.57869  -0.38702   0.76243
C     0.64926   0.37180  -0.24604
N    -0.23400   1.14803  -0.01803
C    -1.35629   1.77329   0.21361
C    -1.87206   1.77517   1.52186
N    -2.31264   1.82013   2.60616
C    -2.22555  -0.96029  -0.32476
C    -2.75672  -0.55729  -1.67923
C    -1.12087  -1.62683  -0.10728
C    -0.57888  -2.02901   1.24347
H     4.12584  -1.47045  -1.17104
H     4.57022   0.24191  -1.39730
H     4.04526  -0.73547  -2.79968
H     1.92667   0.09141  -2.31554
H    -1.91708   2.14984  -0.62201
H    -2.82768  -0.64474   0.55483
H    -3.39095  -1.38222  -2.02903
H    -3.37819   0.35245  -1.67161
H    -1.95134  -0.41540  -2.41657
H    -0.47560  -1.89200  -0.98625
H    -1.02507  -1.43325   2.05086
H    -0.87387  -3.07595   1.37908
H     0.52143  -1.98360   1.35856
26

C     3.89435  -0.55985  -1.73423
N     2.51154  -0.18857  -1.52756
C     2.00159  -0.08462  -0.29105
O     2.57653  -0.38627   0.76182
C     0.63426   0.35401  -0.24407
N    -0.22403   1.15496  -0.01792
C    -1.36321   1.75079   0.21020
C    -1.87299   1.77140   1.52045
N    -2.31143   1.82148   2.60500
C    -2.21898  -0.94195  -0.32229
C    -2.75583  -0.55651  -1.67780
C    -1.10370  -1.60769  -0.10779
C    -0.57774  -2.02766   1.24225
H     4.12541  -1.47013  -1.17082
H     4.56959   0.24227  -1.39705
H     4.04472  -0.73508  -2.79945
H     1.92571   0.09045  -2.31543
H    -1.91828   2.14637  -0.62171
H    -2.82784  -0.64673   0.55517
H    -3.38810  -1.38479  -2.02643
H    -3.38066   0.35064  -1.67273
H    -1.95176  -0.41431  -2.41668
H    -0.47658  -1.89289  -0.98668
H    -1.02380  -1.43263   2.05083
H    -0.87782  -3.07446   1.37591
H     0.52154  -1.98728   1.35988
26

C     3.89242  -0.55876  -1.73339
N     2.50868  -0.18818  -1.52639
C     1.99627  -0.08829  -0.29079
O     2.57438  -0.38551   0.76122
C     0.61926   0.33621  -0.24209
N    -0.21405   1.16188  -0.01780
C    -1.37013   1.72830   0.20678
C    -1.87393   1.76764   1.51903
N    -2.31022   1.82284   2.60384
C    -2.21241  -0.92361  -0.31982
C    -2.75494  -0.55573  -1.67638
C    -1.08652  -1.58854  -0.10829
C    -0.57659  -2.02631   1.24103
H     4.12499  -1.46981  -1.17060
H     4.56895   0.24264  -1.39679
H     4.04419  -0.73470  -2.79923
H     1.92475   0.08949  -2.31532
H    -1.91948   2.14290  -0.62140
H    -2.82801  -0.64872   0.55552
H    -3.38525  -1.38735  -2.02383
H    -3.38313   0.34882  -1.67385
H    -1.95218  -0.41322  -2.41680
H    -0.47757  -1.89378  -0.98711
H    -1.02253  -1.43201   2.05080
H    -0.88177  -3.07296   1.37273
H     0.52165  -1.99095   1.36120
26

C     3.89049  -0.55767  -1.73254
N     2.50582  -0.18779  -1.52521
C     1.99095  -0.09197  -0.29053
O     2.57222  -0.38476   0.76061
C     0.60426   0.31842  -0.24012
N    -0.20408   1.16881  -0.01769
C    -1.37705   1.70580   0.20337
C    -1.87486   1.76388   1.51761
N    -2.30902   1.82420   2.60267
C    -2.20584  -0.90527  -0.31735
C    -2.75404  -0.55495  -1.67495
C    -1.06934  -1.56940  -0.10880
C    -0.57545  -2.02496   1.23981
H     4.12457  -1.46949  -1.17039
H     4.56832   0.24300  -1.39653
H     4.04365  -0.73431  -2.79900
H     1.92380   0.08854  -2.31521
H    -1.92067   2.13944  -0.62109
H    -2.82817  -0.65070   0.55586
H    -3.38240  -1.38992  -2.02123
H    -3.38560   0.34701  -1.67497
H    -1.95260  -0.41212  -2.41692
H    -0.47856  -1.89467  -0.98754
H    -1.02126  -1.43139   2.05076
H    -0.88572  -3.07147   1.36956
H     0.52175  -1.99463   1.36252
26

C     3.88857  -0.55659  -1.73169
N     2.50296  -0.18739  -1.52404
C     1.98563  -0.09565  -0.29026
O     2.57006  -0.38400   0.76000
C     0.58927   0.30062  -0.23814
N    -0.19411   1.17573  -0.01757
C    -1.38397   1.68331   0.19996
C    -1.87579   1.76012   1.51620
N    -2.30781   1.82555   2.60151
C    -2.19927  -0.88693  -0.31488
C    -2.75315  -0.55418  -1.67353
C    -1.05216  -1.55025  -0.10930
C    -0.57431  -2.02361   1.23859
H     4.12414  -1.46917  -1.17017
H     4.56768   0.24337  -1.39628
H     4.04312  -0.73393  -2.79877
H     1.92284   0.08758  -2.31510
H    -1.92187   2.13597  -0.62079
H    -2.82834  -0.65269   0.55621
H    -3.37955  -1.39249  -2.01863
H    -3.38807   0.34519  -1.67609
H    -1.95302  -0.41103  -2.41703
H    -0.47954  -1.89556  -0.98797
H    -1.01998  -1.43076   2.05073
H    -0.88967  -3.06998   1.36639
H     0.52186  -1.99831   1.36383
26

C     3.88664  -0.55550  -1.73085
N     2.50010  -0.18700  -1.52287
C     1.98031  -0.09933  -0.29000
O     2.56790  -0.38325   0.75939
C     0.57427   0.28283  -0.23616
N    -0.18414   1.18265  -0.01746
C    -1.39089   1.66082   0.19654
C    -1.87673   1.75635   1.51478
N    -2.30660   1.82691   2.60034
C    -2.19269  -0.86859  -0.31241
C    -2.75226  -0.55340  -1.67210
C    -1.03499  -1.53111  -0.10980
C    -0.57316  -2.02226   1.23737
H     4.12372  -1.46885  -1.16995
H     4.56705   0.24373  -1.39602
H     4.04258  -0.73354  -2.79854
H     1.92189   0.08662  -2.31500
H    -1.92307   2.13250  -0.62048
H    -2.82851  -0.65468   0.55655
H    -3.37671  -1.39505  -2.01603
H    -3.39055   0.34338  -1.67721
H    -1.95344  -0.40994  -2.41715
H    -0.48053  -1.89645  -0.98840
H    -1.01871  -1.43014   2.05070
H    -0.89362  -3.06849   1.36322
H     0.52197  -2.00198   1.36515
26

C     3.88471  -0.55441  -1.73000
N     2.49723  -0.18661  -1.52170
C     1.97499  -0.10300  -0.28974
O     2.56574  -0.38249   0.75878
C     0.55927   0.26503  -0.23419
N    -0.17417   1.18958  -0.01734
C    -1.39781   1.63832   0.19313
C    -1.87766   1.75259   1.51337
N    -2.30540   1.82827   2.59918
C    -2.18612  -0.85025  -0.30994
C    -2.75136  -0.55262  -1.67068
C    -1.01781  -1.51196  -0.11031
C    -0.57202  -2.02091   1.23614
H     4.12329  -1.46853  -1.16974
H     4.56641   0.24410  -1.39576
H     4.04205  -0.73316  -2.79831
H     1.92093   0.08566  -2.31489
H    -1.92426   2.12903  -0.62018
H    -2.82867  -0.65667   0.55690
H    -3.37386  -1.39762  -2.01342
H    -3.39302   0.34156  -1.67833
H    -1.95386  -0.40885  -2.41726
H    -0.48152  -1.89734  -0.98883
H    -1.01744  -1.42952   2.05067
H    -0.89757  -3.06699   1.36005
H     0.52207  -2.00566   1.36647
26

C     3.88279  -0.55332  -1.72916
N     2.49437  -0.18622  -1.52053
C     1.96967  -0.10668  -0.28947
O     2.56359  -0.38174   0.75817
C     0.54427   0.24724  -0.23221
N    -0.16420   1.19650  -0.01723
C    -1.40473   1.61583   0.18972
C    -1.87860   1.74883   1.51195
N    -2.30419   1.82963   2.59801
C    -2.17955  -0.83191  -0.30748
C    -2.75047  -0.55184  -1.66925
C    -1.00063  -1.49281  -0.11081
C    -0.57088  -2.01956   1.23492
H     4.12287  -1.46821  -1.16952
H     4.56578   0.24446  -1.39551
H     4.04151  -0.73277  -2.79809
H     1.91997   0.08471  -2.31478
H    -1.92546   2.12556  -0.61987
H    -2.82884  -0.65865   0.55724
H    -3.37101  -1.40019  -2.01082
H    -3.39549   0.33975  -1.67945
H    -1.95428  -0.40776  -2.41738
H    -0.48250  -1.89823  -0.98926
H    -1.01617  -1.42890   2.05064
H    -0.90152  -3.06550   1.35687
H     0.52218  -2.00934   1.36779
26

C     3.88086  -0.55223  -1.72831
N     2.49151  -0.18582  -1.51936
C     1.96435  -0.11036  -0.28921
O     2.56143  -0.38098   0.75756
C     0.52927   0.22945  -0.23023
N    -0.15423   1.20343  -0.01712
C    -1.41165   1.59333   0.18630
C    -1.87953   1.74507   1.51053
N    -2.30298   1.83098   2.59685
C    -2.17298  -0.81357  -0.30501
C    -2.74958  -0.55107  -1.66783
C    -0.98345  -1.47367  -0.11132
C    -0.56974  -2.01821   1.23370
H     4.12244  -1.46789  -1.16931
H     4.56515   0.24483  -1.39525
H     4.04098  -0.73239  -2.79786
H     1.91902   0.08375  -2.31467
H    -1.92666   2.12209  -0.61956
H    -2.82900  -0.66064   0.55759
H    -3.36816  -1.40275  -2.00822
H    -3.39796   0.33793  -1.68057
H    -1.95470  -0.40667  -2.41750
H    -0.48349  -1.89912  -0.98969
H    -1.01490  -1.42827   2.05061
H    -0.90547  -3.06401   1.35370
H     0.52229  -2.01301   1.36910
26

C     3.87893  -0.55115  -1.72746
N     2.48865  -0.18543  -1.51819
C     1.95903  -0.11404  -0.28894
O     2.55927  -0.38022   0.75696
C     0.51427   0.21165  -0.22826
N    -0.14426   1.21035  -0.01700
C    -1.41857   1.57084   0.18289
C    -1.88046   1.74130   1.50912
N    -2.30178   1.83234   2.59568
C    -2.16641  -0.79523  -0.30254
C    -2.74869  -0.55029  -1.66640
C    -0.96628  -1.45452  -0.11182
C    -0.56859  -2.01686   1.23248
H     4.12202  -1.46757  -1.16909
H     4.56451   0.24519  -1.39500
H     4.04044  -0.73200  -2.79763
H     1.91806   0.08279  -2.31456
H    -1.92786   2.11862  -0.61926
H    -2.82917  -0.66263   0.55793
H    -3.36531  -1.40532  -2.00562
H    -3.40044   0.33612  -1.68169
H    -1.95512  -0.40558  -2.41761
H    -0.48447  -1.90001  -0.99012
H    -1.01362  -1.42765   2.05058
H    -0.90942  -3.06251   1.35053
H     0.52239  -2.01669   1.37042
26

C     3.87701  -0.55006  -1.72662
N     2.48579  -0.18504  -1.51702
C     1.95371  -0.11772  -0.28868
O     2.55711  -0.37947   0.75635
C     0.49928   0.19386  -0.22628
N    -0.13429   1.21727  -0.01689
C    -1.42549   1.54835   0.17948
C    -1.88140   1.73754   1.50770
N    -2.30057   1.83370   2.59452
C    -2.15983  -0.77689  -0.30007
C    -2.74779  -0.54951  -1.66498
C    -0.94910  -1.43538  -0.11232
C    -0.56745  -2.01551   1.23126
H     4.12160  -1.46725  -1.16887
H     4.56388   0.24555  -1.39474
H     4.03991  -0.73161  -2.79740
H     1.91710   0.08183  -2.31446
H    -1.92905   2.11515  -0.61895
H    -2.82933  -0.66462   0.55828
H    -3.36246  -1.40788  -2.00302
H    -3.40291   0.33430  -1.68280
H    -1.95554  -0.40449  -2.41773
H    -0.48546  -1.90090  -0.99055
H    -1.01235  -1.42703   2.05054
H    -0.91337  -3.06102   1.34736
H     0.52250  -2.02037   1.37174
26

C     3.87508  -0.54897  -1.72577
N     2.48293  -0.18465  -1.51584
C     1.94839  -0.12139  -0.28842
O     2.55495  -0.37871   0.75574
C     0.48428   0.17606  -0.22430
N    -0.12432   1.22420  -0.01677
C    -1.43241   1.52585   0.17606
C    -1.88233   1.73378   1.50629
N    -2.29936   1.83505   2.59335
C    -2.15326  -0.75855  -0.29760
C    -2.74690  -0.54874  -1.66356
C    -0.93192  -1.41623  -0.11283
C    -0.56631  -2.01416   1.23004
H     4.12117  -1.46693  -1.16866
H     4.56324   0.24592  -1.39448
H     4.03937  -0.73123  -2.79717
H     1.91615   0.08088  -2.31435
H    -1.93025   2.11168  -0.61865
H    -2.82950  -0.66660   0.55862
H    -3.35961  -1.41045  -2.00042
H    -3.40538   0.33249  -1.68392
H    -1.95596  -0.40340  -2.41784
H    -0.48645  -1.90179  -0.99098
H    -1.01108  -1.42640   2.05051
H    -0.91732  -3.05953   1.34418
H     0.52261  -2.02404   1.37306
26

C     3.87315  -0.54788  -1.72493
N     2.48006  -0.18425  -1.51467
C     1.94307  -0.12507  -0.28815
O     2.55280  -0.37796   0.75513
C     0.46928   0.15827  -0.22233
N    -0.11435   1.23112  -0.01666
C    -1.43933   1.50336   0.17265
C    -1.88327   1.73002   1.50487
N    -2.29815   1.83641   2.59219
C    -2.14669  -0.74021  -0.29513
C    -2.74601  -0.54796  -1.66213
C    -0.91475  -1.39708  -0.11333
C    -0.56516  -2.01281   1.22881
H     4.12075  -1.46661  -1.16844
H     4.56261   0.24628  -1.39423
H     4.03884  -0.73084  -2.79695
H     1.91519   0.07992  -2.31424
H    -1.93145   2.10821  -0.61834
H    -2.82966  -0.66859   0.55897
H    -3.35676  -1.41302  -1.99782
H    -3.40785   0.33067  -1.68504
H    -1.95638  -0.40230  -2.41796
H    -0.48743  -1.90269  -0.99141
H    -1.00981  -1.42578   2.05048
H    -0.92127  -3.05803   1.34101
H     0.52272  -2.02772   1.37437
26

C     3.87123  -0.54680  -1.72408
N     2.47720  -0.18386  -1.51350
C     1.93775  -0.12875  -0.28789
O     2.55064  -0.37720   0.75452
C     0.45428   0.14047  -0.22035
N    -0.10437   1.23805  -0.01654
C    -1.44625   1.48086   0.16923
C    -1.88420   1.72625   1.50345
N    -2.29695   1.83777   2.59102
C    -2.14012  -0.72187  -0.29266
C    -2.74511  -0.54718  -1.66071
C    -0.89757  -1.37794  -0.11384
C    -0.56402  -2.01145   1.22759
H     4.12032  -1.46629  -1.16823
H     4.56197   0.24665  -1.39397
H     4.03830  -0.73046  -2.79672
H     1.91423   0.07896  -2.31413
H    -1.93264   2.10474  -0.61803
H    -2.82983  -0.67058   0.55931
H    -3.35391  -1.41558  -1.99521
H    -3.41032   0.32885  -1.68616
H    -1.95680  -0.40121  -2.41808
H    -0.48842  -1.90358  -0.99184
H    -1.00853  -1.42516   2.05045
H    -0.92522  -3.05654   1.33784
H     0.52282  -2.03140   1.37569
26

C     3.86930  -0.54571  -1.72323
N     2.47434  -0.18347  -1.51233
C     1.93243  -0.13243  -0.28763
O     2.54848  -0.37645   0.75391
C     0.43928   0.12268  -0.21838
N    -0.09440   1.24497  -0.01643
C    -1.45317   1.45837   0.16582
C    -1.88514   1.72249   1.50204
N    -2.29574   1.83913   2.58986
C    -2.13355  -0.70353  -0.29019
C    -2.74422  -0.54640  -1.65928
C    -0.88039  -1.35879  -0.11434
C    -0.56288  -2.01010   1.22637
H     4.11990  -1.46597  -1.16801
H     4.56134   0.24701  -1.39372
H     4.03777  -0.73007  -2.79649
H     1.91328   0.07800  -2.31402
H    -1.93384   2.10127  -0.61773
H    -2.83000  -0.67256   0.55966
H    -3.35106  -1.41815  -1.99261
H    -3.41280   0.32704  -1.68728
H    -1.95722  -0.40012  -2.41819
H    -0.48941  -1.90447  -0.99227
H    -1.00726  -1.42454   2.05042
H    -0.92917  -3.05505   1.33467
H     0.52293  -2.03507   1.37701
26

C     3.86737  -0.54462  -1.72239
N     2.47148  -0.18308  -1.51116
C     1.92711  -0.13610  -0.28736
O     2.54632  -0.37569   0.75331
C     0.42428   0.10488  -0.21640
N    -0.08443   1.25190  -0.01631
C    -1.46009   1.43588   0.16241
C    -1.88607   1.71873   1.50062
N    -2.29453   1.84048   2.58869
C    -2.12697  -0.68519  -0.28772
C    -2.74333  -0.54563  -1.65786
C    -0.86321  -1.33965  -0.11485
C    -0.56174  -2.00875   1.22515
H     4.11947  -1.46565  -1.16779
H     4.56070   0.24738  -1.39346
H     4.03723  -0.72969  -2.79626
H     1.91232   0.07705  -2.31392
H    -1.93504   2.09781  -0.61742
H    -2.83016  -0.67455   0.56000
H    -3.34822  -1.42072  -1.99001
H    -3.41527   0.32522  -1.68840
H    -1.95764  -0.39903  -2.41831
H    -0.49039  -1.90536  -0.99270
H    -1.00599  -1.42391   2.05039
H    -0.93312  -3.05356   1.33149
H     0.52304  -2.03875   1.37833
26

C     3.86545  -0.54353  -1.72154
N     2.46862  -0.18268  -1.50999
C     1.92179  -0.13978  -0.28710
O     2.54416  -0.37494   0.75270
C     0.40929   0.08709  -0.21442
N    -0.07446   1.25882  -0.01620
C    -1.46701   1.41338   0.15899
C    -1.88700   1.71497   1.49921
N    -2.29333   1.84184   2.58753
C    -2.12040  -0.66685  -0.28525
C    -2.74243  -0.54485  -1.65643
C    -0.84604  -1.32050  -0.11535
C    -0.56059  -2.00740   1.22393
H     4.11905  -1.46533  -1.16758
H     4.56007   0.24774  -1.39320
H     4.03670  -0.72930  -2.79603
H     1.91137   0.07609  -2.31381
H    -1.93623   2.09434  -0.61712
H    -2.83033  -0.67654   0.56035
H    -3.34537  -1.42328  -1.98741
H    -3.41774   0.32341  -1.68952
H    -1.95806  -0.39794  -2.41842
H    -0.49138  -1.90625  -0.99313
H    -1.00472  -1.42329   2.05035
H    -0.93707  -3.05206   1.32832
H     0.52314  -2.04243   1.37964
26

C     3.86352  -0.54244  -1.72070
N     2.46576  -0.18229  -1.50882
C     1.91647  -0.14346  -0.28684
O     2.54200  -0.37418   0.75209
C     0.39429   0.06930  -0.21245
N    -0.06449   1.26574  -0.01608
C    -1.47392   1.39089   0.15558
C    -1.88794   1.71120   1.49779
N    -2.29212   1.84320   2.58636
C    -2.11383  -0.64851  -0.28279
C    -2.74154  -0.54407  -1.65501
C    -0.82886  -1.30136  -0.11585
C    -0.55945  -2.00605   1.22271
H     4.11862  -1.46500  -1.16736
H     4.55944   0.24811  -1.39295
H     4.03616  -0.72892  -2.79581
H     1.91041   0.07513  -2.31370
H    -1.93743   2.09087  -0.61681
H    -2.83049  -0.67853   0.56069
H    -3.34252  -1.42585  -1.98481
H    -3.42021   0.32159  -1.69064
H    -1.95848  -0.39685  -2.41854
H    -0.49236  -1.90714  -0.99356
H    -1.00345  -1.42267   2.05032
H    -0.94102  -3.05057   1.32515
H     0.52325  -2.04610   1.38096
