23

C     3.55778  -0.06952   0.91270
C     2.62856   0.77801   0.06181
O     2.97568   1.88164  -0.36205
N     1.32783   0.32372  -0.19313
N     1.05255  -0.86468   0.32217
C    -0.27659  -1.11190   0.44283
C    -0.68459  -2.45870   0.77197
N    -1.20793  -3.47467   1.01641
C    -1.57052  -0.04526   0.01593
C    -2.44185   0.17770   1.25988
F    -2.32300  -0.71266  -0.94610
C    -0.90821   1.12414  -0.59235
C    -0.65803   2.43398   0.05388
F    -0.91171   1.13477  -1.89736
H     3.70573  -1.06519   0.47434
H     4.54427   0.42747   1.03396
H     3.11945  -0.21902   1.91950
H    -3.41863   0.70219   1.11793
H    -1.87083   0.72554   2.01900
H    -2.66979  -0.82810   1.65676
H    -0.50448   2.31265   1.13068
H    -1.49279   3.15632  -0.09398
H     0.25069   2.86299  -0.39634
23

C     3.55991  -0.06965   0.91465
C     2.63401   0.77855   0.06324
O     2.97821   1.88183  -0.36120
N     1.33635   0.32131  -0.19777
N     1.04611  -0.85488   0.31785
C    -0.25541  -1.13193   0.45248
C    -0.68243  -2.46547   0.77381
N    -1.21193  -3.47836   1.01678
C    -1.59093  -0.02644   0.00932
C    -2.44413   0.17795   1.26136
F    -2.32299  -0.71524  -0.94473
C    -0.92242   1.12907  -0.59331
C    -0.65808   2.43535   0.05377
F    -0.90898   1.13541  -1.90061
H     3.70627  -1.06507   0.47449
H     4.54496   0.42703   1.03546
H     3.11917  -0.21921   1.91966
H    -3.42109   0.69988   1.12327
H    -1.87066   0.72582   2.01865
H    -2.66697  -0.82907   1.65607
H    -0.50503   2.31263   1.13073
H    -1.48945   3.16020  -0.09395
H     0.25249   2.86000  -0.39569
23

C     3.56203  -0.06977   0.91660
C     2.63946   0.77909   0.06467
O     2.98074   1.88203  -0.36034
N     1.34486   0.31890  -0.20241
N     1.03968  -0.84509   0.31353
C    -0.23423  -1.15195   0.46214
C    -0.68027  -2.47224   0.77564
N    -1.21592  -3.48205   1.01714
C    -1.61134  -0.00762   0.00271
C    -2.44642   0.17820   1.26284
F    -2.32297  -0.71783  -0.94336
C    -0.93663   1.13400  -0.59426
C    -0.65814   2.43672   0.05366
F    -0.90626   1.13606  -1.90386
H     3.70681  -1.06495   0.47464
H     4.54565   0.42658   1.03697
H     3.11890  -0.21939   1.91983
H    -3.42356   0.69757   1.12862
H    -1.87048   0.72610   2.01829
H    -2.66415  -0.83004   1.65538
H    -0.50558   2.31261   1.13078
H    -1.48612   3.16407  -0.09392
H     0.25428   2.85702  -0.39504
23

C     3.56415  -0.06990   0.91855
C     2.64490   0.77963   0.06610
O     2.98327   1.88222  -0.35949
N     1.35338   0.31649  -0.20706
N     1.03324  -0.83529   0.30922
C    -0.21305  -1.17198   0.47179
C    -0.67811  -2.47902   0.77747
N    -1.21992  -3.48575   1.01751
C    -1.63174   0.01121  -0.00390
C    -2.44870   0.17845   1.26431
F    -2.32296  -0.72041  -0.94198
C    -0.95084   1.13894  -0.59521
C    -0.65820   2.43809   0.05354
F    -0.90353   1.13670  -1.90711
H     3.70735  -1.06483   0.47479
H     4.54633   0.42614   1.03848
H     3.11862  -0.21957   1.91999
H    -3.42603   0.69525   1.13396
H    -1.87031   0.72639   2.01794
H    -2.66133  -0.83101   1.65469
H    -0.50612   2.31259   1.13083
H    -1.48279   3.16795  -0.09389
H     0.25607   2.85403  -0.39438
23

C     3.56628  -0.07002   0.92050
C     2.65035   0.78017   0.06754
O     2.98580   1.88242  -0.35864
N     1.36190   0.31407  -0.21170
N     1.02681  -0.82549   0.30490
C    -0.19187  -1.19200   0.48145
C    -0.67595  -2.48579   0.77931
N    -1.22392  -3.48944   1.01787
C    -1.65215   0.03003  -0.01051
C    -2.45098   0.17870   1.26579
F    -2.32295  -0.72300  -0.94061
C    -0.96505   1.14387  -0.59617
C    -0.65826   2.43947   0.05343
F    -0.90080   1.13734  -1.91037
H     3.70790  -1.06471   0.47495
H     4.54702   0.42570   1.03999
H     3.11834  -0.21976   1.92016
H    -3.42850   0.69294   1.13931
H    -1.87014   0.72667   2.01758
H    -2.65851  -0.83199   1.65400
H    -0.50667   2.31258   1.13088
H    -1.47946   3.17182  -0.09385
H     0.25787   2.85105  -0.39373
23

C     3.56840  -0.07015   0.92245
C     2.65579   0.78071   0.06897
O     2.98833   1.88261  -0.35778
N     1.37041   0.31166  -0.21634
N     1.02037  -0.81570   0.30058
C    -0.17069  -1.21203   0.49110
C    -0.67379  -2.49256   0.78114
N    -1.22792  -3.49313   1.01824
C    -1.67256   0.04885  -0.01712
C    -2.45327   0.17895   1.26727
F    -2.32294  -0.72558  -0.93924
C    -0.97926   1.14880  -0.59712
C    -0.65831   2.44084   0.05332
F    -0.89807   1.13798  -1.91362
H     3.70844  -1.06459   0.47510
H     4.54771   0.42526   1.04150
H     3.11807  -0.21994   1.92032
H    -3.43096   0.69063   1.14465
H    -1.86997   0.72695   2.01723
H    -2.65569  -0.83296   1.65331
H    -0.50722   2.31256   1.13093
H    -1.47612   3.17570  -0.09382
H     0.25966   2.84806  -0.39307
23

C     3.57052  -0.07027   0.92440
C     2.66124   0.78125   0.07040
O     2.99086   1.88280  -0.35693
N     1.37893   0.30925  -0.22099
N     1.01394  -0.80590   0.29626
C    -0.14950  -1.23205   0.50076
C    -0.67163  -2.49934   0.78298
N    -1.23191  -3.49682   1.01860
C    -1.69297   0.06768  -0.02373
C    -2.45555   0.17920   1.26875
F    -2.32293  -0.72817  -0.93786
C    -0.99347   1.15373  -0.59808
C    -0.65837   2.44221   0.05321
F    -0.89535   1.13863  -1.91687
H     3.70898  -1.06447   0.47525
H     4.54839   0.42481   1.04301
H     3.11779  -0.22012   1.92049
H    -3.43343   0.68831   1.14999
H    -1.86980   0.72724   2.01687
H    -2.65287  -0.83393   1.65262
H    -0.50777   2.31254   1.13098
H    -1.47279   3.17957  -0.09379
H     0.26145   2.84508  -0.39242
23

C     3.57265  -0.07040   0.92635
C     2.66669   0.78179   0.07183
O     2.99339   1.88300  -0.35608
N     1.38745   0.30684  -0.22563
N     1.00751  -0.79610   0.29195
C    -0.12832  -1.25208   0.51041
C    -0.66947  -2.50611   0.78481
N    -1.23591  -3.50051   1.01897
C    -1.71338   0.08650  -0.03034
C    -2.45783   0.17945   1.27023
F    -2.32292  -0.73076  -0.93649
C    -1.00768   1.15867  -0.59903
C    -0.65843   2.44358   0.05309
F    -0.89262   1.13927  -1.92013
H     3.70952  -1.06435   0.47540
H     4.54908   0.42437   1.04452
H     3.11752  -0.22031   1.92065
H    -3.43590   0.68600   1.15534
H    -1.86963   0.72752   2.01651
H    -2.65005  -0.83490   1.65193
H    -0.50832   2.31252   1.13103
H    -1.46946   3.18345  -0.09376
H     0.26325   2.84209  -0.39177
23

C     3.57477  -0.07052   0.92830
C     2.67213   0.78233   0.07327
O     2.99592   1.88319  -0.35522
N     1.39596   0.30442  -0.23027
N     1.00107  -0.78630   0.28763
C    -0.10714  -1.27210   0.52007
C    -0.66731  -2.51289   0.78664
N    -1.23991  -3.50420   1.01934
C    -1.73379   0.10532  -0.03695
C    -2.46012   0.17970   1.27171
F    -2.32290  -0.73334  -0.93512
C    -1.02189   1.16360  -0.59998
C    -0.65849   2.44495   0.05298
F    -0.88989   1.13991  -1.92338
H     3.71007  -1.06423   0.47556
H     4.54977   0.42393   1.04603
H     3.11724  -0.22049   1.92082
H    -3.43837   0.68369   1.16068
H    -1.86946   0.72780   2.01616
H    -2.64723  -0.83587   1.65124
H    -0.50887   2.31250   1.13108
H    -1.46613   3.18732  -0.09373
H     0.26504   2.83911  -0.39111
23

C     3.57689  -0.07064   0.93025
C     2.67758   0.78287   0.07470
O     2.99845   1.88339  -0.35437
N     1.40448   0.30201  -0.23492
N     0.99464  -0.77651   0.28331
C    -0.08596  -1.29213   0.52972
C    -0.66515  -2.51966   0.78848
N    -1.24391  -3.50789   1.01970
C    -1.75420   0.12415  -0.04356
C    -2.46240   0.17995   1.27319
F    -2.32289  -0.73593  -0.93375
C    -1.03610   1.16853  -0.60094
C    -0.65854   2.44632   0.05287
F    -0.88716   1.14055  -1.92663
H     3.71061  -1.06411   0.47571
H     4.55045   0.42349   1.04754
H     3.11696  -0.22068   1.92099
H    -3.44083   0.68138   1.16603
H    -1.86929   0.72809   2.01580
H    -2.64441  -0.83684   1.65056
H    -0.50942   2.31249   1.13113
H    -1.46279   3.19120  -0.09370
H     0.26683   2.83612  -0.39046
23

C     3.57902  -0.07077   0.93220
C     2.68302   0.78342   0.07613
O     3.00097   1.88358  -0.35352
N     1.41300   0.29960  -0.23956
N     0.98820  -0.76671   0.27900
C    -0.06478  -1.31215   0.53938
C    -0.66299  -2.52643   0.79031
N    -1.24791  -3.51158   1.02007
C    -1.77461   0.14297  -0.05017
C    -2.46468   0.18020   1.27466
F    -2.32288  -0.73851  -0.93237
C    -1.05031   1.17346  -0.60189
C    -0.65860   2.44769   0.05276
F    -0.88444   1.14120  -1.92989
H     3.71115  -1.06399   0.47586
H     4.55114   0.42305   1.04904
H     3.11669  -0.22086   1.92115
H    -3.44330   0.67906   1.17137
H    -1.86911   0.72837   2.01545
H    -2.64159  -0.83781   1.64987
H    -0.50996   2.31247   1.13118
H    -1.45946   3.19508  -0.09367
H     0.26863   2.83314  -0.38981
23

C     3.58114  -0.07089   0.93415
C     2.68847   0.78396   0.07756
O     3.00350   1.88378  -0.35266
N     1.42151   0.29719  -0.24420
N     0.98177  -0.75691   0.27468
C    -0.04360  -1.33218   0.54903
C    -0.66083  -2.53321   0.79215
N    -1.25190  -3.51527   1.02043
C    -1.79502   0.16179  -0.05678
C    -2.46697   0.18045   1.27614
F    -2.32287  -0.74110  -0.93100
C    -1.06452   1.17840  -0.60284
C    -0.65866   2.44906   0.05264
F    -0.88171   1.14184  -1.93314
H     3.71169  -1.06387   0.47601
H     4.55183   0.42260   1.05055
H     3.11641  -0.22104   1.92132
H    -3.44577   0.67675   1.17672
H    -1.86894   0.72865   2.01509
H    -2.63877  -0.83879   1.64918
H    -0.51051   2.31245   1.13123
H    -1.45613   3.19895  -0.09364
H     0.27042   2.83015  -0.38915
23

C     3.58327  -0.07102   0.93610
C     2.69391   0.78450   0.07900
O     3.00603   1.88397  -0.35181
N     1.43003   0.29477  -0.24884
N     0.97533  -0.74712   0.27036
C    -0.02242  -1.35220   0.55869
C    -0.65867  -2.53998   0.79398
N    -1.25590  -3.51896   1.02080
C    -1.81543   0.18062  -0.06339
C    -2.46925   0.18071   1.27762
F    -2.32286  -0.74368  -0.92963
C    -1.07873   1.18333  -0.60380
C    -0.65872   2.45044   0.05253
F    -0.87898   1.14248  -1.93639
H     3.71224  -1.06375   0.47617
H     4.55251   0.42216   1.05206
H     3.11614  -0.22123   1.92148
H    -3.44824   0.67444   1.18206
H    -1.86877   0.72894   2.01473
H    -2.63595  -0.83976   1.64849
H    -0.51106   2.31243   1.13128
H    -1.45280   3.20283  -0.09361
H     0.27221   2.82717  -0.38850
23

C     3.58539  -0.07114   0.93805
C     2.69936   0.78504   0.08043
O     3.00856   1.88416  -0.35096
N     1.43855   0.29236  -0.25349
N     0.96890  -0.73732   0.26605
C    -0.00124  -1.37223   0.56834
C    -0.65651  -2.54676   0.79581
N    -1.25990  -3.52265   1.02117
C    -1.83584   0.19944  -0.07000
C    -2.47153   0.18096   1.27910
F    -2.32284  -0.74627  -0.92825
C    -1.09294   1.18826  -0.60475
C    -0.65877   2.45181   0.05242
F    -0.87625   1.14313  -1.93965
H     3.71278  -1.06363   0.47632
H     4.55320   0.42172   1.05357
H     3.11586  -0.22141   1.92165
H    -3.45071   0.67212   1.18741
H    -1.86860   0.72922   2.01438
H    -2.63313  -0.84073   1.64780
H    -0.51161   2.31242   1.13133
H    -1.44946   3.20670  -0.09358
H     0.27401   2.82418  -0.38785
23

C     3.58751  -0.07127   0.94000
C     2.70481   0.78558   0.08186
O     3.01109   1.88436  -0.35010
N     1.44706   0.28995  -0.25813
N     0.96247  -0.72752   0.26173
C     0.01994  -1.39225   0.57800
C    -0.65435  -2.55353   0.79765
N    -1.26390  -3.52634   1.02153
C    -1.85625   0.21826  -0.07662
C    -2.47382   0.18121   1.28058
F    -2.32283  -0.74886  -0.92688
C    -1.10715   1.19319  -0.60570
C    -0.65883   2.45318   0.05230
F    -0.87353   1.14377  -1.94290
H     3.71332  -1.06351   0.47647
H     4.55389   0.42128   1.05508
H     3.11558  -0.22159   1.92181
H    -3.45317   0.66981   1.19275
H    -1.86843   0.72950   2.01402
H    -2.63030  -0.84170   1.64711
H    -0.51216   2.31240   1.13138
H    -1.44613   3.21058  -0.09355
H     0.27580   2.82120  -0.38719
23

C     3.58964  -0.07139   0.94195
C     2.71025   0.78612   0.08329
O     3.01362   1.88455  -0.34925
N     1.45558   0.28754  -0.26277
N     0.95603  -0.71773   0.25741
C     0.04112  -1.41228   0.58765
C    -0.65219  -2.56030   0.79948
N    -1.26790  -3.53003   1.02190
C    -1.87666   0.23708  -0.08323
C    -2.47610   0.18146   1.28206
F    -2.32282  -0.75144  -0.92551
C    -1.12136   1.19813  -0.60666
C    -0.65889   2.45455   0.05219
F    -0.87080   1.14441  -1.94615
H     3.71386  -1.06339   0.47662
H     4.55457   0.42083   1.05659
H     3.11531  -0.22178   1.92198
H    -3.45564   0.66750   1.19809
H    -1.86826   0.72979   2.01367
H    -2.62748  -0.84267   1.64642
H    -0.51271   2.31238   1.13143
H    -1.44280   3.21445  -0.09351
H     0.27759   2.81821  -0.38654
23

C     3.59176  -0.07152   0.94390
C     2.71570   0.78666   0.08473
O     3.01615   1.88475  -0.34840
N     1.46410   0.28512  -0.26742
N     0.94960  -0.70793   0.25309
C     0.06230  -1.43230   0.59731
C    -0.65003  -2.56708   0.80131
N    -1.27189  -3.53373   1.02226
C    -1.89706   0.25591  -0.08984
C    -2.47838   0.18171   1.28354
F    -2.32281  -0.75403  -0.92413
C    -1.13557   1.20306  -0.60761
C    -0.65895   2.45592   0.05208
F    -0.86807   1.14505  -1.94940
H     3.71440  -1.06327   0.47678
H     4.55526   0.42039   1.05810
H     3.11503  -0.22196   1.92214
H    -3.45811   0.66518   1.20344
H    -1.86809   0.73007   2.01331
H    -2.62466  -0.84364   1.64573
H    -0.51326   2.31236   1.13148
H    -1.43947   3.21833  -0.09348
H     0.27939   2.81523  -0.38588
23

C     3.59388  -0.07164   0.94585
C     2.72114   0.78720   0.08616
O     3.01868   1.88494  -0.34754
N     1.47261   0.28271  -0.27206
N     0.94316  -0.69813   0.24878
C     0.08348  -1.45233   0.60696
C    -0.64786  -2.57385   0.80315
N    -1.27589  -3.53742   1.02263
C    -1.91747   0.27473  -0.09645
C    -2.48067   0.18196   1.28502
F    -2.32280  -0.75661  -0.92276
C    -1.14978   1.20799  -0.60857
C    -0.65900   2.45729   0.05197
F    -0.86534   1.14570  -1.95266
H     3.71495  -1.06315   0.47693
H     4.55594   0.41995   1.05961
H     3.11475  -0.22215   1.92231
H    -3.46058   0.66287   1.20878
H    -1.86792   0.73035   2.01295
H    -2.62184  -0.84461   1.64504
H    -0.51380   2.31234   1.13153
H    -1.43613   3.22220  -0.09345
H     0.28118   2.81224  -0.38523
23

C     3.59601  -0.07177   0.94780
C     2.72659   0.78774   0.08759
O     3.02121   1.88513  -0.34669
N     1.48113   0.28030  -0.27670
N     0.93673  -0.68834   0.24446
C     0.10466  -1.47236   0.61662
C    -0.64570  -2.58062   0.80498
N    -1.27989  -3.54111   1.02299
C    -1.93788   0.29355  -0.10306
C    -2.48295   0.18221   1.28649
F    -2.32279  -0.75920  -0.92139
C    -1.16398   1.21292  -0.60952
C    -0.65906   2.45866   0.05185
F    -0.86262   1.14634  -1.95591
H     3.71549  -1.06303   0.47708
H     4.55663   0.41951   1.06112
H     3.11448  -0.22233   1.92247
H    -3.46304   0.66056   1.21413
H    -1.86774   0.73064   2.01260
H    -2.61902  -0.84559   1.64435
H    -0.51435   2.31233   1.13158
H    -1.43280   3.22608  -0.09342
H     0.28297   2.80926  -0.38458
23

C     3.59813  -0.07189   0.94975
C     2.73204   0.78828   0.08903
O     3.02374   1.88533  -0.34583
N     1.48965   0.27788  -0.28135
N     0.93029  -0.67854   0.24014
C     0.12585  -1.49238   0.62627
C    -0.64354  -2.58740   0.80682
N    -1.28389  -3.54480   1.02336
C    -1.95829   0.31238  -0.10967
C    -2.48523   0.18246   1.28797
F    -2.32277  -0.76178  -0.92002
C    -1.17819   1.21786  -0.61047
C    -0.65912   2.46003   0.05174
F    -0.85989   1.14698  -1.95916
H     3.71603  -1.06291   0.47724
H     4.55732   0.41906   1.06263
H     3.11420  -0.22251   1.92264
H    -3.46551   0.65825   1.21947
H    -1.86757   0.73092   2.01224
H    -2.61620  -0.84656   1.64366
H    -0.51490   2.31231   1.13163
H    -1.42947   3.22995  -0.09339
H     0.28477   2.80627  -0.38392
23

C     3.60025  -0.07201   0.95170
C     2.73748   0.78882   0.09046
O     3.02626   1.88552  -0.34498
N     1.49816   0.27547  -0.28599
N     0.92386  -0.66874   0.23583
C     0.14703  -1.51241   0.63593
C    -0.64138  -2.59417   0.80865
N    -1.28788  -3.54849   1.02373
C    -1.97870   0.33120  -0.11628
C    -2.48752   0.18271   1.28945
F    -2.32276  -0.76437  -0.91864
C    -1.19240   1.22279  -0.61143
C    -0.65918   2.46141   0.05163
F    -0.85716   1.14762  -1.96242
H     3.71657  -1.06279   0.47739
H     4.55800   0.41862   1.06413
H     3.11393  -0.22270   1.92280
H    -3.46798   0.65593   1.22482
H    -1.86740   0.73120   2.01189
H    -2.61338  -0.84753   1.64297
H    -0.51545   2.31229   1.13168
H    -1.42614   3.23383  -0.09336
H     0.28656   2.80329  -0.38327
23

C     3.59813  -0.07189   0.94975
C     2.73204   0.78828   0.08903
O     3.02374   1.88533  -0.34583
N     1.48965   0.27788  -0.28135
N     0.93029  -0.67854   0.24014
C     0.12585  -1.49238   0.62627
C    -0.64354  -2.58740   0.80682
N    -1.28389  -3.54480   1.02336
C    -1.95829   0.31238  -0.10967
C    -2.48523   0.18246   1.28797
F    -2.32277  -0.76178  -0.92002
C    -1.17819   1.21786  -0.61047
C    -0.65912   2.46003   0.05174
F    -0.85989   1.14698  -1.95916
H     3.71603  -1.06291   0.47724
H     4.55732   0.41906   1.06263
H     3.11420  -0.22251   1.92264
H    -3.46551   0.65825   1.21947
H    -1.86757   0.73092   2.01224
H    -2.61620  -0.84656   1.64366
H    -0.51490   2.31231   1.13163
H    -1.42947   3.22995  -0.09339
H     0.28477   2.80627  -0.38392
23

C     3.59601  -0.07177   0.94780
C     2.72659   0.78774   0.08759
O     3.02121   1.88513  -0.34669
N     1.48113   0.28030  -0.27670
N     0.93673  -0.68834   0.24446
C     0.10466  -1.47236   0.61662
C    -0.64570  -2.58062   0.80498
N    -1.27989  -3.54111   1.02299
C    -1.93788   0.29355  -0.10306
C    -2.48295   0.18221   1.28649
F    -2.32279  -0.75920  -0.92139
C    -1.16398   1.21292  -0.60952
C    -0.65906   2.45866   0.05185
F    -0.86262   1.14634  -1.95591
H     3.71549  -1.06303   0.47708
H     4.55663   0.41951   1.06112
H     3.11448  -0.22233   1.92247
H    -3.46304   0.66056   1.21413
H    -1.86774   0.73064   2.01260
H    -2.61902  -0.84559   1.64435
H    -0.51435   2.31233   1.13158
H    -1.43280   3.22608  -0.09342
H     0.28297   2.80926  -0.38458
23

C     3.59388  -0.07164   0.94585
C     2.72114   0.78720   0.08616
O     3.01868   1.88494  -0.34754
N     1.47261   0.28271  -0.27206
N     0.94316  -0.69813   0.24878
C     0.08348  -1.45233   0.60696
C    -0.64786  -2.57385   0.80315
N    -1.27589  -3.53742   1.02263
C    -1.91747   0.27473  -0.09645
C    -2.48067   0.18196   1.28502
F    -2.32280  -0.75661  -0.92276
C    -1.14978   1.20799  -0.60857
C    -0.65900   2.45729   0.05197
F    -0.86534   1.14570  -1.95266
H     3.71495  -1.06315   0.47693
H     4.55594   0.41995   1.05961
H     3.11475  -0.22215   1.92231
H    -3.46058   0.66287   1.20878
H    -1.86792   0.73035   2.01295
H    -2.62184  -0.84461   1.64504
H    -0.51380   2.31234   1.13153
H    -1.43613   3.22220  -0.09345
H     0.28118   2.81224  -0.38523
23

C     3.59176  -0.07152   0.94390
C     2.71570   0.78666   0.08473
O     3.01615   1.88475  -0.34840
N     1.46410   0.28512  -0.26742
N     0.94960  -0.70793   0.25309
C     0.06230  -1.43230   0.59731
C    -0.65003  -2.56708   0.80131
N    -1.27189  -3.53373   1.02226
C    -1.89706   0.25591  -0.08984
C    -2.47838   0.18171   1.28354
F    -2.32281  -0.75403  -0.92413
C    -1.13557   1.20306  -0.60761
C    -0.65895   2.45592   0.05208
F    -0.86807   1.14505  -1.94940
H     3.71440  -1.06327   0.47678
H     4.55526   0.42039   1.05810
H     3.11503  -0.22196   1.92214
H    -3.45811   0.66518   1.20344
H    -1.86809   0.73007   2.01331
H    -2.62466  -0.84364   1.64573
H    -0.51326   2.31236   1.13148
H    -1.43947   3.21833  -0.09348
H     0.27939   2.81523  -0.38588
23

C     3.58964  -0.07139   0.94195
C     2.71025   0.78612   0.08329
O     3.01362   1.88455  -0.34925
N     1.45558   0.28754  -0.26277
N     0.95603  -0.71773   0.25741
C     0.04112  -1.41228   0.58765
C    -0.65219  -2.56030   0.79948
N    -1.26790  -3.53003   1.02190
C    -1.87666   0.23708  -0.08323
C    -2.47610   0.18146   1.28206
F    -2.32282  -0.75144  -0.92551
C    -1.12136   1.19813  -0.60666
C    -0.65889   2.45455   0.05219
F    -0.87080   1.14441  -1.94615
H     3.71386  -1.06339   0.47662
H     4.55457   0.42083   1.05659
H     3.11531  -0.22178   1.92198
H    -3.45564   0.66750   1.19809
H    -1.86826   0.72979   2.01367
H    -2.62748  -0.84267   1.64642
H    -0.51271   2.31238   1.13143
H    -1.44280   3.21445  -0.09351
H     0.27759   2.81821  -0.38654
23

C     3.58751  -0.07127   0.94000
C     2.70481   0.78558   0.08186
O     3.01109   1.88436  -0.35010
N     1.44706   0.28995  -0.25813
N     0.96247  -0.72752   0.26173
C     0.01994  -1.39225   0.57800
C    -0.65435  -2.55353   0.79765
N    -1.26390  -3.52634   1.02153
C    -1.85625   0.21826  -0.07662
C    -2.47382   0.18121   1.28058
F    -2.32283  -0.74886  -0.92688
C    -1.10715   1.19319  -0.60570
C    -0.65883   2.45318   0.05230
F    -0.87353   1.14377  -1.94290
H     3.71332  -1.06351   0.47647
H     4.55389   0.42128   1.05508
H     3.11558  -0.22159   1.92181
H    -3.45317   0.66981   1.19275
H    -1.86843   0.72950   2.01402
H    -2.63030  -0.84170   1.64711
H    -0.51216   2.31240   1.13138
H    -1.44613   3.21058  -0.09355
H     0.27580   2.82120  -0.38719
23

C     3.58539  -0.07114   0.93805
C     2.69936   0.78504   0.08043
O     3.00856   1.88416  -0.35096
N     1.43855   0.29236  -0.25349
N     0.96890  -0.73732   0.26605
C    -0.00124  -1.37223   0.56834
C    -0.65651  -2.54676   0.79581
N    -1.25990  -3.52265   1.02117
C    -1.83584   0.19944  -0.07000
C    -2.47153   0.18096   1.27910
F    -2.32284  -0.74627  -0.92825
C    -1.09294   1.18826  -0.60475
C    -0.65877   2.45181   0.05242
F    -0.87625   1.14313  -1.93965
H     3.71278  -1.06363   0.47632
H     4.55320   0.42172   1.05357
H     3.11586  -0.22141   1.92165
H    -3.45071   0.67212   1.18741
H    -1.86860   0.72922   2.01438
H    -2.63313  -0.84073   1.64780
H    -0.51161   2.31242   1.13133
H    -1.44946   3.20670  -0.09358
H     0.27401   2.82418  -0.38785
23

C     3.58327  -0.07102   0.93610
C     2.69391   0.78450   0.07900
O     3.00603   1.88397  -0.35181
N     1.43003   0.29477  -0.24884
N     0.97533  -0.74712   0.27036
C    -0.02242  -1.35220   0.55869
C    -0.65867  -2.53998   0.79398
N    -1.25590  -3.51896   1.02080
C    -1.81543   0.18062  -0.06339
C    -2.46925   0.18071   1.27762
F    -2.32286  -0.74368  -0.92963
C    -1.07873   1.18333  -0.60380
C    -0.65872   2.45044   0.05253
F    -0.87898   1.14248  -1.93639
H     3.71224  -1.06375   0.47617
H     4.55251   0.42216   1.05206
H     3.11614  -0.22123   1.92148
H    -3.44824   0.67444   1.18206
H    -1.86877   0.72894   2.01473
H    -2.63595  -0.83976   1.64849
H    -0.51106   2.31243   1.13128
H    -1.45280   3.20283  -0.09361
H     0.27221   2.82717  -0.38850
23

C     3.58114  -0.07089   0.93415
C     2.68847   0.78396   0.07756
O     3.00350   1.88378  -0.35266
N     1.42151   0.29719  -0.24420
N     0.98177  -0.75691   0.27468
C    -0.04360  -1.33218   0.54903
C    -0.66083  -2.53321   0.79215
N    -1.25190  -3.51527   1.02043
C    -1.79502   0.16179  -0.05678
C    -2.46697   0.18045   1.27614
F    -2.32287  -0.74110  -0.93100
C    -1.06452   1.17840  -0.60284
C    -0.65866   2.44906   0.05264
F    -0.88171   1.14184  -1.93314
H     3.71169  -1.06387   0.47601
H     4.55183   0.42260   1.05055
H     3.11641  -0.22104   1.92132
H    -3.44577   0.67675   1.17672
H    -1.86894   0.72865   2.01509
H    -2.63877  -0.83879   1.64918
H    -0.51051   2.31245   1.13123
H    -1.45613   3.19895  -0.09364
H     0.27042   2.83015  -0.38915
23

C     3.57902  -0.07077   0.93220
C     2.68302   0.78342   0.07613
O     3.00097   1.88358  -0.35352
N     1.41300   0.29960  -0.23956
N     0.98820  -0.76671   0.27900
C    -0.06478  -1.31215   0.53938
C    -0.66299  -2.52643   0.79031
N    -1.24791  -3.51158   1.02007
C    -1.77461   0.14297  -0.05017
C    -2.46468   0.18020   1.27466
F    -2.32288  -0.73851  -0.93237
C    -1.05031   1.17346  -0.60189
C    -0.65860   2.44769   0.05276
F    -0.88444   1.14120  -1.92989
H     3.71115  -1.06399   0.47586
H     4.55114   0.42305   1.04904
H     3.11669  -0.22086   1.92115
H    -3.44330   0.67906   1.17137
H    -1.86911   0.72837   2.01545
H    -2.64159  -0.83781   1.64987
H    -0.50996   2.31247   1.13118
H    -1.45946   3.19508  -0.09367
H     0.26863   2.83314  -0.38981
23

C     3.57689  -0.07064   0.93025
C     2.67758   0.78287   0.07470
O     2.99845   1.88339  -0.35437
N     1.40448   0.30201  -0.23492
N     0.99464  -0.77651   0.28331
C    -0.08596  -1.29213   0.52972
C    -0.66515  -2.51966   0.78848
N    -1.24391  -3.50789   1.01970
C    -1.75420   0.12415  -0.04356
C    -2.46240   0.17995   1.27319
F    -2.32289  -0.73593  -0.93375
C    -1.03610   1.16853  -0.60094
C    -0.65854   2.44632   0.05287
F    -0.88716   1.14055  -1.92663
H     3.71061  -1.06411   0.47571
H     4.55045   0.42349   1.04754
H     3.11696  -0.22068   1.92099
H    -3.44083   0.68138   1.16603
H    -1.86929   0.72809   2.01580
H    -2.64441  -0.83684   1.65056
H    -0.50942   2.31249   1.13113
H    -1.46279   3.19120  -0.09370
H     0.26683   2.83612  -0.39046
23

C     3.57477  -0.07052   0.92830
C     2.67213   0.78233   0.07327
O     2.99592   1.88319  -0.35522
N     1.39596   0.30442  -0.23027
N     1.00107  -0.78630   0.28763
C    -0.10714  -1.27210   0.52007
C    -0.66731  -2.51289   0.78664
N    -1.23991  -3.50420   1.01934
C    -1.73379   0.10532  -0.03695
C    -2.46012   0.17970   1.27171
F    -2.32290  -0.73334  -0.93512
C    -1.02189   1.16360  -0.59998
C    -0.65849   2.44495   0.05298
F    -0.88989   1.13991  -1.92338
H     3.71007  -1.06423   0.47556
H     4.54977   0.42393   1.04603
H     3.11724  -0.22049   1.92082
H    -3.43837   0.68369   1.16068
H    -1.86946   0.72780   2.01616
H    -2.64723  -0.83587   1.65124
H    -0.50887   2.31250   1.13108
H    -1.46613   3.18732  -0.09373
H     0.26504   2.83911  -0.39111
23

C     3.57265  -0.07040   0.92635
C     2.66669   0.78179   0.07183
O     2.99339   1.88300  -0.35608
N     1.38745   0.30684  -0.22563
N     1.00751  -0.79610   0.29195
C    -0.12832  -1.25208   0.51041
C    -0.66947  -2.50611   0.78481
N    -1.23591  -3.50051   1.01897
C    -1.71338   0.08650  -0.03034
C    -2.45783   0.17945   1.27023
F    -2.32292  -0.73076  -0.93649
C    -1.00768   1.15867  -0.59903
C    -0.65843   2.44358   0.05309
F    -0.89262   1.13927  -1.92013
H     3.70952  -1.06435   0.47540
H     4.54908   0.42437   1.04452
H     3.11752  -0.22031   1.92065
H    -3.43590   0.68600   1.15534
H    -1.86963   0.72752   2.01651
H    -2.65005  -0.83490   1.65193
H    -0.50832   2.31252   1.13103
H    -1.46946   3.18345  -0.09376
H     0.26325   2.84209  -0.39177
23

C     3.57052  -0.07027   0.92440
C     2.66124   0.78125   0.07040
O     2.99086   1.88280  -0.35693
N     1.37893   0.30925  -0.22099
N     1.01394  -0.80590   0.29626
C    -0.14950  -1.23205   0.50076
C    -0.67163  -2.49934   0.78298
N    -1.23191  -3.49682   1.01860
C    -1.69297   0.06768  -0.02373
C    -2.45555   0.17920   1.26875
F    -2.32293  -0.72817  -0.93786
C    -0.99347   1.15373  -0.59808
C    -0.65837   2.44221   0.05321
F    -0.89535   1.13863  -1.91687
H     3.70898  -1.06447   0.47525
H     4.54839   0.42481   1.04301
H     3.11779  -0.22012   1.92049
H    -3.43343   0.68831   1.14999
H    -1.86980   0.72724   2.01687
H    -2.65287  -0.83393   1.65262
H    -0.50777   2.31254   1.13098
H    -1.47279   3.17957  -0.09379
H     0.26145   2.84508  -0.39242
23

C     3.56840  -0.07015   0.92245
C     2.65579   0.78071   0.06897
O     2.98833   1.88261  -0.35778
N     1.37041   0.31166  -0.21634
N     1.02037  -0.81570   0.30058
C    -0.17069  -1.21203   0.49110
C    -0.67379  -2.49256   0.78114
N    -1.22792  -3.49313   1.01824
C    -1.67256   0.04885  -0.01712
C    -2.45327   0.17895   1.26727
F    -2.32294  -0.72558  -0.93924
C    -0.97926   1.14880  -0.59712
C    -0.65831   2.44084   0.05332
F    -0.89807   1.13798  -1.91362
H     3.70844  -1.06459   0.47510
H     4.54771   0.42526   1.04150
H     3.11807  -0.21994   1.92032
H    -3.43096   0.69063   1.14465
H    -1.86997   0.72695   2.01723
H    -2.65569  -0.83296   1.65331
H    -0.50722   2.31256   1.13093
H    -1.47612   3.17570  -0.09382
H     0.25966   2.84806  -0.39307
23

C     3.56628  -0.07002   0.92050
C     2.65035   0.78017   0.06754
O     2.98580   1.88242  -0.35864
N     1.36190   0.31407  -0.21170
N     1.02681  -0.82549   0.30490
C    -0.19187  -1.19200   0.48145
C    -0.67595  -2.48579   0.77931
N    -1.22392  -3.48944   1.01787
C    -1.65215   0.03003  -0.01051
C    -2.45098   0.17870   1.26579
F    -2.32295  -0.72300  -0.94061
C    -0.96505   1.14387  -0.59617
C    -0.65826   2.43947   0.05343
F    -0.90080   1.13734  -1.91037
H     3.70790  -1.06471   0.47495
H     4.54702   0.42570   1.03999
H     3.11834  -0.21976   1.92016
H    -3.42850   0.69294   1.13931
H    -1.87014   0.72667   2.01758
H    -2.65851  -0.83199   1.65400
H    -0.50667   2.31258   1.13088
H    -1.47946   3.17182  -0.09385
H     0.25787   2.85105  -0.39373
23

C     3.56415  -0.06990   0.91855
C     2.64490   0.77963   0.06610
O     2.98327   1.88222  -0.35949
N     1.35338   0.31649  -0.20706
N     1.03324  -0.83529   0.30922
C    -0.21305  -1.17198   0.47179
C    -0.67811  -2.47902   0.77747
N    -1.21992  -3.48575   1.01751
C    -1.63174   0.01121  -0.00390
C    -2.44870   0.17845   1.26431
F    -2.32296  -0.72041  -0.94198
C    -0.95084   1.13894  -0.59521
C    -0.65820   2.43809   0.05354
F    -0.90353   1.13670  -1.90711
H     3.70735  -1.06483   0.47479
H     4.54633   0.42614   1.03848
H     3.11862  -0.21957   1.91999
H    -3.42603   0.69525   1.13396
H    -1.87031   0.72639   2.01794
H    -2.66133  -0.83101   1.65469
H    -0.50612   2.31259   1.13083
H    -1.48279   3.16795  -0.09389
H     0.25607   2.85403  -0.39438
23

C     3.56203  -0.06977   0.91660
C     2.63946   0.77909   0.06467
O     2.98074   1.88203  -0.36034
N     1.34486   0.31890  -0.20241
N     1.03968  -0.84509   0.31353
C    -0.23423  -1.15195   0.46214
C    -0.68027  -2.47224   0.77564
N    -1.21592  -3.48205   1.01714
C    -1.61134  -0.00762   0.00271
C    -2.44642   0.17820   1.26284
F    -2.32297  -0.71783  -0.94336
C    -0.93663   1.13400  -0.59426
C    -0.65814   2.43672   0.05366
F    -0.90626   1.13606  -1.90386
H     3.70681  -1.06495   0.47464
H     4.54565   0.42658   1.03697
H     3.11890  -0.21939   1.91983
H    -3.42356   0.69757   1.12862
H    -1.87048   0.72610   2.01829
H    -2.66415  -0.83004   1.65538
H    -0.50558   2.31261   1.13078
H    -1.48612   3.16407  -0.09392
H     0.25428   2.85702  -0.39504
23

C     3.55991  -0.06965   0.91465
C     2.63401   0.77855   0.06324
O     2.97821   1.88183  -0.36120
N     1.33635   0.32131  -0.19777
N     1.04611  -0.85488   0.31785
C    -0.25541  -1.13193   0.45248
C    -0.68243  -2.46547   0.77381
N    -1.21193  -3.47836   1.01678
C    -1.59093  -0.02644   0.00932
C    -2.44413   0.17795   1.26136
F    -2.32299  -0.71524  -0.94473
C    -0.92242   1.12907  -0.59331
C    -0.65808   2.43535   0.05377
F    -0.90898   1.13541  -1.90061
H     3.70627  -1.06507   0.47449
H     4.54496   0.42703   1.03546
H     3.11917  -0.21921   1.91966
H    -3.42109   0.69988   1.12327
H    -1.87066   0.72582   2.01865
H    -2.66697  -0.82907   1.65607
H    -0.50503   2.31263   1.13073
H    -1.48945   3.16020  -0.09395
H     0.25249   2.86000  -0.39569
