17

C -5.911871478 -0.603581245 -0.676698982
C -3.197517854 -0.816895023 -1.408998790
N -1.515492889 0.608326404 -0.514289078
C 1.069589408 0.222284723 -1.328706141
C 2.734717955 -0.461011595 0.877706334
C 5.344439900 0.520139803 0.990230360
N 3.416686816 1.451924429 2.728902001
H -7.074191165 -0.203886029 -2.336865467
H -6.164295311 0.893827304 0.710520261
H -6.584323357 -2.389637033 0.112893278
H -2.720981044 -2.298940478 -2.790938573
H 1.747104129 1.997201728 -2.150236115
H 1.222917440 -1.248008883 -2.793268927
H 2.340253802 -2.298052174 1.705334246
H 6.829858232 -0.592196515 1.854790323
H 5.963469883 1.736853952 -0.541171453
H 2.755032057 3.164033003 2.181970172

