12

O -0.086518068 2.098473606 1.574185911
C 0.989395365 0.255381784 0.101599632
C 3.674898295 0.161327866 0.108240905
C 5.935960762 0.090989368 0.112371071
C -0.681138667 -1.119224860 -1.170658330
C -3.236614700 -0.010630012 -0.606975704
N -2.748850706 1.578523608 1.619533178
H 7.946796202 0.029037059 0.115453838
H -0.254527741 -2.618233687 -2.479647126
H -4.695531022 -1.395184495 -0.150922826
H -3.922583621 1.150750764 -2.178017867
H -2.924122578 0.463208156 3.176766753

