17

C -4.236887008 0.461434440 0.656420501
C -1.407262774 0.265874375 0.993824090
C -0.189741769 -1.775180092 -0.626767164
C 2.654084210 -1.864319588 -0.156261812
C 3.675467178 0.778785861 -0.038927035
C 2.165944255 2.775150441 0.154880215
O -0.379646319 2.694205628 0.402730041
H -5.151288989 -1.286458290 1.257397496
H -4.702429373 0.803476947 -1.324115354
H -4.992269216 2.015696043 1.778426301
H -0.959669142 -0.113022894 2.986785405
H -0.567027177 -1.336391714 -2.612387649
H -1.075373218 -3.594196747 -0.218438186
H 3.063376628 -2.884930811 1.597672202
H 5.689150832 1.102742669 -0.190909884
H 2.852073424 4.703724723 0.121650156
H 3.592762086 -2.918285799 -1.664851531

