14

C -3.336456623 0.355852380 1.089987774
C -2.124705971 1.564322353 -1.167794185
C 4.984053122 0.593326684 0.183400434
C 2.920859606 -0.740981267 0.234205683
C 0.846007256 -2.062103710 0.292147879
C -1.656611759 -1.168584053 -0.629335151
H -2.590381581 0.832891914 2.933664447
H -5.348926034 -0.006159921 1.044020620
H -3.309534980 2.033643603 -2.766205592
H 5.487973140 1.827419209 1.739333537
H 6.260332837 0.505329395 -1.416764695
H -0.581621645 2.866425403 -0.840303628
H 0.922267286 -3.947937698 1.103635697
H -2.624092613 -2.512820323 -1.836283139

