14

C -2.845353331 0.609315506 0.487074017
C -0.670825279 1.138130304 -1.264387574
C 2.689439985 1.351334875 -0.170983667
C 2.953716728 -0.994065729 1.621626975
C 0.902166156 -2.437086317 1.214757943
C -1.226939004 -1.493551864 -0.540538187
H -2.695108709 1.021474978 2.491607051
H -4.704845123 0.935381116 -0.306330784
H -0.857157793 2.050947618 -3.073415156
H 3.352616389 3.210966657 0.392380087
H 3.352195944 0.777710002 -2.015610571
H 0.907853003 1.112703019 1.021114834
H 0.692943597 -4.320209039 1.995317633
H -2.001542410 -2.822427174 -1.888899124

