11

C -1.632621761 -3.309603501 -1.091281461
O -2.472596633 -4.463786330 1.041854408
H -2.697158571 -3.175418055 2.308188325
C -1.265270209 -0.836516409 -1.298175254
C -0.360372794 0.500655082 -3.602106385
H -1.765333920 1.861169566 -4.269246867
H 1.394730111 1.535588331 -3.233373385
H 0.015834185 -0.842966856 -5.115887559
O -1.883227697 0.629604872 0.778276996
H -0.792115026 2.073824585 0.851126562
H -1.310772206 -4.595392337 -2.644290365

