19

C 3.147515833 2.061053816 2.145153715
C 3.243603853 -0.519925092 1.949777993
C -0.505486186 -2.193883535 0.273616923
O -1.538982789 -3.171382734 2.412197774
C -1.728342682 -0.273491898 -1.012382183
C -1.408738424 0.014713200 -3.822290715
O -4.158194882 0.213425234 -0.060742431
H 4.357988765 3.233806756 0.978819362
H 0.774014303 2.885353089 0.668913537
H 2.506734252 2.931687076 3.886789770
H 4.443012098 -1.387128536 0.536130911
H 2.672031393 -1.708852784 3.508566604
H 0.770792773 -3.460678129 -0.686218364
H -3.090076946 -2.256598405 2.706973506
H -0.431401004 2.072815736 -0.161863792
H -2.678703203 -1.258905346 -4.837554183
H -1.808944660 1.945799420 -4.432205019
H 0.531964518 -0.427185138 -4.361458680
H -4.497727493 1.992012918 -0.133696876

