9

C -1.636276038 2.786266868 -0.955747526
C -2.615647521 0.167326026 -0.545566162
C -3.028324211 -1.514796090 -2.350927958
H -2.667626026 -1.080247785 -4.322792786
H -3.738856208 -3.387347854 -1.928169296
H -3.005933319 -0.357402598 1.403253834
H 0.134457207 3.077652980 0.067200229
H -2.975456345 4.192436114 -0.251166693
H -1.298249558 3.159256702 -2.954866626

