15

C -1.287060489 2.954972564 -0.358465267
C -1.437966704 0.184526106 0.237994357
C -1.542017387 -1.611519926 -1.664929936
C 2.602665273 -0.102539865 2.262367814
C 3.327735253 -1.783966260 0.503797999
N 3.194140101 -3.138633950 -1.282799403
H -0.746884960 4.086967986 1.273321519
H -3.138386850 3.618912513 -0.997969223
H 0.055181156 3.315973144 -1.882575552
H -2.179969368 -0.310386798 2.080261956
H -1.638858141 -0.943964101 -3.606047333
H -2.518816046 -3.375929411 -1.289938448
H 0.922344576 -2.636468032 -1.814072356
H 2.169476286 -0.785293209 4.141761502
H 3.277695740 1.821647210 2.106032643

