13

C 0.447985845 -1.440909632 2.154976833
C -3.045435776 -0.056241953 -1.011554596
C -1.080191509 1.404391808 -1.845753861
C 1.271688248 1.554510291 -0.691604688
C 2.513140046 -0.696973249 0.507778613
H -0.515357869 -3.229807283 1.984877803
H 0.053828433 -0.303116644 3.805994171
H -4.517150967 -0.694225738 -2.292290550
H -3.452874656 -0.189723930 0.977374969
H -1.319718188 2.495713010 -3.581047466
H 2.335220101 3.312420440 -0.763944859
H 3.086524809 -2.132706977 -0.857378550
H 4.178565997 -0.061731268 1.550827271

