27

C     2.58400  -1.94551  -1.45203
O     1.39962  -1.66274  -0.68805
C     1.44731  -0.57950   0.07996
O     2.42692   0.12653   0.22170
N     0.23649  -0.24199   0.73008
O    -0.66557  -1.21553   0.51095
C    -1.97420  -0.64777   0.70614
C    -2.14577  -0.15333   2.16956
C    -2.93723  -1.80485   0.38160
C    -2.01836   0.54569  -0.22107
C    -0.90455   1.19903  -0.41440
C     0.26758   2.02355  -0.68509
C     0.67758   2.96461   0.41218
O     0.90722   1.88345  -1.72592
H     2.35608  -2.83161  -2.05497
H     3.43476  -2.13900  -0.79114
H     2.81681  -1.09127  -2.11164
H    -1.99800  -0.92802   2.94429
H    -3.15458   0.23419   2.23430
H    -1.41830   0.65878   2.34981
H    -2.67107  -2.23916  -0.59613
H    -2.94621  -2.65593   1.12688
H    -3.93230  -1.38752   0.35607
H    -3.13363   0.80175  -0.66782
H     1.71278   3.29547   0.24425
H     0.00501   3.83037   0.42158
H     0.59420   2.46391   1.39299
27

C     2.58355  -1.94495  -1.45251
O     1.39923  -1.66367  -0.68892
C     1.44717  -0.58139   0.08314
O     2.42823   0.12484   0.22236
N     0.24323  -0.24834   0.73898
O    -0.66769  -1.21359   0.50885
C    -1.96708  -0.66927   0.72228
C    -2.14346  -0.15333   2.16927
C    -2.93608  -1.80887   0.38301
C    -2.02720   0.57094  -0.24084
C    -0.91281   1.21129  -0.42323
C     0.26746   2.02422  -0.68530
C     0.67817   2.96384   0.41267
O     0.90819   1.88242  -1.72479
H     2.35619  -2.83139  -2.05533
H     3.43472  -2.13892  -0.79139
H     2.81683  -1.09109  -2.11175
H    -1.99755  -0.92559   2.94674
H    -3.15421   0.23343   2.23251
H    -1.41743   0.65894   2.34764
H    -2.66997  -2.23968  -0.59572
H    -2.94925  -2.65805   1.12612
H    -3.93075  -1.38617   0.35625
H    -3.13671   0.79570  -0.66548
H     1.71303   3.29511   0.24460
H     0.00527   3.83023   0.42178
H     0.59409   2.46347   1.39299
27

C     2.58310  -1.94438  -1.45300
O     1.39884  -1.66460  -0.68979
C     1.44704  -0.58327   0.08631
O     2.42954   0.12315   0.22301
N     0.24997  -0.25470   0.74789
O    -0.66982  -1.21165   0.50675
C    -1.95996  -0.69077   0.73842
C    -2.14114  -0.15334   2.16897
C    -2.93493  -1.81290   0.38441
C    -2.03605   0.59619  -0.26061
C    -0.92107   1.22356  -0.43206
C     0.26734   2.02489  -0.68552
C     0.67876   2.96306   0.41316
O     0.90915   1.88140  -1.72366
H     2.35629  -2.83117  -2.05568
H     3.43468  -2.13884  -0.79164
H     2.81684  -1.09091  -2.11185
H    -1.99710  -0.92316   2.94918
H    -3.15384   0.23267   2.23072
H    -1.41656   0.65910   2.34547
H    -2.66886  -2.24020  -0.59531
H    -2.95229  -2.66017   1.12536
H    -3.92920  -1.38482   0.35644
H    -3.13979   0.78965  -0.66314
H     1.71327   3.29475   0.24496
H     0.00554   3.83009   0.42198
H     0.59398   2.46303   1.39299
27

C     2.58266  -1.94382  -1.45349
O     1.39845  -1.66554  -0.69065
C     1.44691  -0.58516   0.08948
O     2.43086   0.12147   0.22366
N     0.25670  -0.26105   0.75679
O    -0.67194  -1.20971   0.50466
C    -1.95284  -0.71227   0.75456
C    -2.13883  -0.15334   2.16868
C    -2.93379  -1.81692   0.38581
C    -2.04489   0.62144  -0.28038
C    -0.92934   1.23582  -0.44090
C     0.26722   2.02556  -0.68574
C     0.67935   2.96228   0.41365
O     0.91011   1.88037  -1.72253
H     2.35640  -2.83095  -2.05604
H     3.43464  -2.13876  -0.79190
H     2.81685  -1.09073  -2.11195
H    -1.99666  -0.92074   2.95163
H    -3.15347   0.23191   2.22893
H    -1.41570   0.65926   2.34330
H    -2.66776  -2.24072  -0.59490
H    -2.95533  -2.66229   1.12460
H    -3.92766  -1.38346   0.35663
H    -3.14287   0.78360  -0.66079
H     1.71352   3.29439   0.24531
H     0.00581   3.82995   0.42218
H     0.59387   2.46259   1.39299
27

C     2.58221  -1.94325  -1.45397
O     1.39806  -1.66647  -0.69152
C     1.44678  -0.58704   0.09265
O     2.43217   0.11978   0.22431
N     0.26344  -0.26741   0.76569
O    -0.67406  -1.20777   0.50256
C    -1.94572  -0.73378   0.77070
C    -2.13651  -0.15334   2.16839
C    -2.93264  -1.82095   0.38721
C    -2.05373   0.64669  -0.30016
C    -0.93760   1.24809  -0.44973
C     0.26710   2.02623  -0.68596
C     0.67994   2.96151   0.41413
O     0.91108   1.87935  -1.72140
H     2.35650  -2.83073  -2.05639
H     3.43461  -2.13868  -0.79215
H     2.81686  -1.09055  -2.11205
H    -1.99621  -0.91831   2.95408
H    -3.15311   0.23115   2.22714
H    -1.41483   0.65942   2.34113
H    -2.66666  -2.24124  -0.59449
H    -2.95837  -2.66441   1.12384
H    -3.92611  -1.38211   0.35681
H    -3.14595   0.77755  -0.65845
H     1.71376   3.29404   0.24567
H     0.00608   3.82981   0.42238
H     0.59376   2.46215   1.39299
27

C     2.58176  -1.94269  -1.45446
O     1.39767  -1.66741  -0.69239
C     1.44665  -0.58893   0.09582
O     2.43349   0.11809   0.22497
N     0.27018  -0.27376   0.77460
O    -0.67619  -1.20583   0.50046
C    -1.93860  -0.75528   0.78684
C    -2.13420  -0.15335   2.16810
C    -2.93149  -1.82497   0.38862
C    -2.06258   0.67195  -0.31993
C    -0.94586   1.26035  -0.45856
C     0.26699   2.02690  -0.68618
C     0.68053   2.96073   0.41462
O     0.91204   1.87832  -1.72027
H     2.35661  -2.83052  -2.05675
H     3.43457  -2.13860  -0.79240
H     2.81687  -1.09038  -2.11216
H    -1.99576  -0.91588   2.95652
H    -3.15274   0.23040   2.22535
H    -1.41397   0.65957   2.33896
H    -2.66555  -2.24176  -0.59407
H    -2.96141  -2.66652   1.12309
H    -3.92457  -1.38076   0.35700
H    -3.14903   0.77150  -0.65610
H     1.71401   3.29368   0.24602
H     0.00635   3.82967   0.42258
H     0.59364   2.46171   1.39299
27

C     2.58131  -1.94213  -1.45495
O     1.39728  -1.66834  -0.69326
C     1.44652  -0.59082   0.09899
O     2.43480   0.11641   0.22562
N     0.27692  -0.28011   0.78350
O    -0.67831  -1.20389   0.49836
C    -1.93148  -0.77678   0.80298
C    -2.13188  -0.15335   2.16781
C    -2.93034  -1.82900   0.39002
C    -2.07142   0.69720  -0.33970
C    -0.95412   1.27262  -0.46740
C     0.26687   2.02757  -0.68639
C     0.68112   2.95996   0.41511
O     0.91300   1.87730  -1.71914
H     2.35671  -2.83030  -2.05710
H     3.43453  -2.13852  -0.79265
H     2.81688  -1.09020  -2.11226
H    -1.99531  -0.91345   2.95897
H    -3.15237   0.22964   2.22356
H    -1.41310   0.65973   2.33679
H    -2.66445  -2.24229  -0.59366
H    -2.96445  -2.66864   1.12233
H    -3.92302  -1.37941   0.35718
H    -3.15210   0.76545  -0.65376
H     1.71425   3.29332   0.24638
H     0.00662   3.82953   0.42279
H     0.59353   2.46127   1.39299
27

C     2.58086  -1.94156  -1.45543
O     1.39689  -1.66927  -0.69412
C     1.44639  -0.59270   0.10217
O     2.43611   0.11472   0.22627
N     0.28366  -0.28647   0.79240
O    -0.68044  -1.20195   0.49626
C    -1.92436  -0.79828   0.81912
C    -2.12957  -0.15335   2.16752
C    -2.92919  -1.83302   0.39142
C    -2.08027   0.72245  -0.35947
C    -0.96238   1.28488  -0.47623
C     0.26675   2.02824  -0.68661
C     0.68172   2.95918   0.41560
O     0.91397   1.87627  -1.71801
H     2.35682  -2.83008  -2.05746
H     3.43449  -2.13844  -0.79290
H     2.81689  -1.09002  -2.11236
H    -1.99486  -0.91102   2.96142
H    -3.15200   0.22888   2.22177
H    -1.41223   0.65989   2.33462
H    -2.66334  -2.24281  -0.59325
H    -2.96749  -2.67076   1.12157
H    -3.92147  -1.37806   0.35737
H    -3.15518   0.75940  -0.65142
H     1.71450   3.29296   0.24674
H     0.00689   3.82938   0.42299
H     0.59342   2.46084   1.39299
27

C     2.58042  -1.94100  -1.45592
O     1.39650  -1.67021  -0.69499
C     1.44626  -0.59459   0.10534
O     2.43743   0.11303   0.22692
N     0.29040  -0.29282   0.80131
O    -0.68256  -1.20001   0.49416
C    -1.91724  -0.81978   0.83526
C    -2.12725  -0.15336   2.16722
C    -2.92804  -1.83705   0.39282
C    -2.08911   0.74770  -0.37925
C    -0.97064   1.29715  -0.48506
C     0.26663   2.02891  -0.68683
C     0.68231   2.95840   0.41609
O     0.91493   1.87525  -1.71688
H     2.35692  -2.82986  -2.05781
H     3.43446  -2.13836  -0.79316
H     2.81690  -1.08984  -2.11246
H    -1.99441  -0.90860   2.96386
H    -3.15164   0.22812   2.21998
H    -1.41137   0.66005   2.33245
H    -2.66224  -2.24333  -0.59284
H    -2.97053  -2.67288   1.12081
H    -3.91993  -1.37670   0.35756
H    -3.15826   0.75335  -0.64907
H     1.71475   3.29261   0.24709
H     0.00716   3.82924   0.42319
H     0.59331   2.46040   1.39299
27

C     2.57997  -1.94043  -1.45641
O     1.39611  -1.67114  -0.69586
C     1.44613  -0.59648   0.10851
O     2.43874   0.11135   0.22758
N     0.29713  -0.29918   0.81021
O    -0.68469  -1.19807   0.49206
C    -1.91012  -0.84128   0.85140
C    -2.12494  -0.15336   2.16693
C    -2.92689  -1.84107   0.39423
C    -2.09795   0.77295  -0.39902
C    -0.97890   1.30941  -0.49390
C     0.26652   2.02958  -0.68705
C     0.68290   2.95763   0.41658
O     0.91589   1.87422  -1.71574
H     2.35703  -2.82964  -2.05817
H     3.43442  -2.13828  -0.79341
H     2.81691  -1.08966  -2.11257
H    -1.99397  -0.90617   2.96631
H    -3.15127   0.22736   2.21819
H    -1.41050   0.66021   2.33028
H    -2.66113  -2.24385  -0.59243
H    -2.97357  -2.67500   1.12005
H    -3.91838  -1.37535   0.35774
H    -3.16134   0.74730  -0.64673
H     1.71499   3.29225   0.24745
H     0.00743   3.82910   0.42339
H     0.59319   2.45996   1.39299
27

C     2.57952  -1.93987  -1.45689
O     1.39572  -1.67207  -0.69673
C     1.44600  -0.59836   0.11168
O     2.44005   0.10966   0.22823
N     0.30387  -0.30553   0.81911
O    -0.68681  -1.19613   0.48996
C    -1.90300  -0.86278   0.86754
C    -2.12262  -0.15337   2.16664
C    -2.92574  -1.84510   0.39563
C    -2.10680   0.79820  -0.41879
C    -0.98717   1.32168  -0.50273
C     0.26640   2.03025  -0.68727
C     0.68349   2.95685   0.41707
O     0.91686   1.87320  -1.71461
H     2.35713  -2.82942  -2.05852
H     3.43438  -2.13820  -0.79366
H     2.81692  -1.08948  -2.11267
H    -1.99352  -0.90374   2.96876
H    -3.15090   0.22660   2.21640
H    -1.40963   0.66037   2.32811
H    -2.66003  -2.24437  -0.59202
H    -2.97661  -2.67712   1.11929
H    -3.91684  -1.37400   0.35793
H    -3.16442   0.74125  -0.64438
H     1.71524   3.29189   0.24780
H     0.00770   3.82896   0.42359
H     0.59308   2.45952   1.39299
27

C     2.57907  -1.93931  -1.45738
O     1.39533  -1.67301  -0.69759
C     1.44587  -0.60025   0.11485
O     2.44137   0.10797   0.22888
N     0.31061  -0.31189   0.82802
O    -0.68894  -1.19419   0.48786
C    -1.89588  -0.88428   0.88368
C    -2.12031  -0.15337   2.16635
C    -2.92459  -1.84912   0.39703
C    -2.11564   0.82345  -0.43856
C    -0.99543   1.33394  -0.51156
C     0.26628   2.03092  -0.68748
C     0.68408   2.95608   0.41755
O     0.91782   1.87217  -1.71348
H     2.35724  -2.82920  -2.05888
H     3.43434  -2.13812  -0.79391
H     2.81693  -1.08930  -2.11277
H    -1.99307  -0.90131   2.97120
H    -3.15054   0.22585   2.21461
H    -1.40877   0.66053   2.32594
H    -2.65893  -2.24489  -0.59161
H    -2.97965  -2.67924   1.11853
H    -3.91529  -1.37265   0.35812
H    -3.16750   0.73520  -0.64204
H     1.71548   3.29153   0.24816
H     0.00797   3.82882   0.42379
H     0.59297   2.45908   1.39299
27

C     2.57862  -1.93874  -1.45786
O     1.39494  -1.67394  -0.69846
C     1.44574  -0.60214   0.11803
O     2.44268   0.10629   0.22953
N     0.31735  -0.31824   0.83692
O    -0.69106  -1.19225   0.48576
C    -1.88876  -0.90578   0.89983
C    -2.11799  -0.15337   2.16606
C    -2.92344  -1.85314   0.39843
C    -2.12449   0.84871  -0.45834
C    -1.00369   1.34621  -0.52040
C     0.26616   2.03159  -0.68770
C     0.68467   2.95530   0.41804
O     0.91878   1.87115  -1.71235
H     2.35734  -2.82899  -2.05923
H     3.43431  -2.13804  -0.79416
H     2.81694  -1.08912  -2.11287
H    -1.99262  -0.89889   2.97365
H    -3.15017   0.22509   2.21281
H    -1.40790   0.66069   2.32377
H    -2.65782  -2.24541  -0.59119
H    -2.98269  -2.68136   1.11777
H    -3.91374  -1.37130   0.35830
H    -3.17058   0.72915  -0.63970
H     1.71573   3.29117   0.24851
H     0.00824   3.82868   0.42399
H     0.59286   2.45864   1.39299
27

C     2.57818  -1.93818  -1.45835
O     1.39456  -1.67488  -0.69933
C     1.44561  -0.60402   0.12120
O     2.44400   0.10460   0.23019
N     0.32409  -0.32459   0.84582
O    -0.69318  -1.19031   0.48367
C    -1.88164  -0.92728   0.91597
C    -2.11568  -0.15338   2.16577
C    -2.92229  -1.85717   0.39984
C    -2.13333   0.87396  -0.47811
C    -1.01195   1.35847  -0.52923
C     0.26604   2.03226  -0.68792
C     0.68526   2.95453   0.41853
O     0.91975   1.87012  -1.71122
H     2.35745  -2.82877  -2.05959
H     3.43427  -2.13796  -0.79442
H     2.81696  -1.08894  -2.11298
H    -1.99217  -0.89646   2.97610
H    -3.14980   0.22433   2.21102
H    -1.40703   0.66084   2.32159
H    -2.65672  -2.24593  -0.59078
H    -2.98573  -2.68348   1.11701
H    -3.91220  -1.36994   0.35849
H    -3.17365   0.72310  -0.63735
H     1.71597   3.29082   0.24887
H     0.00851   3.82854   0.42419
H     0.59275   2.45820   1.39299
27

C     2.57773  -1.93761  -1.45884
O     1.39417  -1.67581  -0.70020
C     1.44548  -0.60591   0.12437
O     2.44531   0.10291   0.23084
N     0.33083  -0.33095   0.85473
O    -0.69531  -1.18837   0.48157
C    -1.87452  -0.94878   0.93211
C    -2.11336  -0.15338   2.16547
C    -2.92114  -1.86119   0.40124
C    -2.14217   0.89921  -0.49788
C    -1.02021   1.37074  -0.53806
C     0.26593   2.03293  -0.68814
C     0.68586   2.95375   0.41902
O     0.92071   1.86910  -1.71009
H     2.35756  -2.82855  -2.05994
H     3.43423  -2.13788  -0.79467
H     2.81697  -1.08877  -2.11308
H    -1.99172  -0.89403   2.97854
H    -3.14943   0.22357   2.20923
H    -1.40617   0.66100   2.31942
H    -2.65561  -2.24645  -0.59037
H    -2.98878  -2.68560   1.11626
H    -3.91065  -1.36859   0.35867
H    -3.17673   0.71705  -0.63501
H     1.71622   3.29046   0.24923
H     0.00878   3.82840   0.42439
H     0.59263   2.45777   1.39299
27

C     2.57728  -1.93705  -1.45932
O     1.39378  -1.67674  -0.70106
C     1.44535  -0.60780   0.12754
O     2.44662   0.10123   0.23149
N     0.33757  -0.33730   0.86363
O    -0.69743  -1.18642   0.47947
C    -1.86740  -0.97028   0.94825
C    -2.11105  -0.15339   2.16518
C    -2.91999  -1.86522   0.40264
C    -2.15102   0.92446  -0.51765
C    -1.02847   1.38300  -0.54690
C     0.26581   2.03360  -0.68836
C     0.68645   2.95297   0.41951
O     0.92168   1.86807  -1.70896
H     2.35766  -2.82833  -2.06030
H     3.43419  -2.13780  -0.79492
H     2.81698  -1.08859  -2.11318
H    -1.99127  -0.89160   2.98099
H    -3.14907   0.22281   2.20744
H    -1.40530   0.66116   2.31725
H    -2.65451  -2.24697  -0.58996
H    -2.99182  -2.68772   1.11550
H    -3.90911  -1.36724   0.35886
H    -3.17981   0.71100  -0.63267
H     1.71646   3.29010   0.24958
H     0.00904   3.82826   0.42460
H     0.59252   2.45733   1.39299
27

C     2.57683  -1.93649  -1.45981
O     1.39339  -1.67768  -0.70193
C     1.44522  -0.60968   0.13071
O     2.44794   0.09954   0.23214
N     0.34430  -0.34366   0.87254
O    -0.69956  -1.18448   0.47737
C    -1.86028  -0.99178   0.96439
C    -2.10873  -0.15339   2.16489
C    -2.91884  -1.86924   0.40404
C    -2.15986   0.94971  -0.53743
C    -1.03673   1.39527  -0.55573
C     0.26569   2.03427  -0.68858
C     0.68704   2.95220   0.42000
O     0.92264   1.86705  -1.70783
H     2.35777  -2.82811  -2.06065
H     3.43416  -2.13772  -0.79517
H     2.81699  -1.08841  -2.11328
H    -1.99083  -0.88918   2.98343
H    -3.14870   0.22205   2.20565
H    -1.40443   0.66132   2.31508
H    -2.65340  -2.24749  -0.58955
H    -2.99486  -2.68984   1.11474
H    -3.90756  -1.36589   0.35905
H    -3.18289   0.70495  -0.63032
H     1.71671   3.28974   0.24994
H     0.00931   3.82812   0.42480
H     0.59241   2.45689   1.39299
27

C     2.57638  -1.93592  -1.46030
O     1.39300  -1.67861  -0.70280
C     1.44509  -0.61157   0.13389
O     2.44925   0.09786   0.23280
N     0.35104  -0.35001   0.88144
O    -0.70168  -1.18254   0.47527
C    -1.85316  -1.01328   0.98053
C    -2.10642  -0.15339   2.16460
C    -2.91769  -1.87327   0.40545
C    -2.16870   0.97496  -0.55720
C    -1.04500   1.40753  -0.56456
C     0.26557   2.03494  -0.68879
C     0.68763   2.95142   0.42048
O     0.92360   1.86602  -1.70670
H     2.35787  -2.82789  -2.06101
H     3.43412  -2.13764  -0.79542
H     2.81700  -1.08823  -2.11339
H    -1.99038  -0.88675   2.98588
H    -3.14833   0.22130   2.20386
H    -1.40357   0.66148   2.31291
H    -2.65230  -2.24802  -0.58914
H    -2.99790  -2.69196   1.11398
H    -3.90602  -1.36454   0.35923
H    -3.18597   0.69890  -0.62798
H     1.71695   3.28939   0.25029
H     0.00958   3.82798   0.42500
H     0.59230   2.45645   1.39299
27

C     2.57593  -1.93536  -1.46078
O     1.39261  -1.67954  -0.70367
C     1.44496  -0.61345   0.13706
O     2.45056   0.09617   0.23345
N     0.35778  -0.35636   0.89034
O    -0.70381  -1.18060   0.47317
C    -1.84604  -1.03478   0.99667
C    -2.10410  -0.15340   2.16431
C    -2.91654  -1.87729   0.40685
C    -2.17755   1.00021  -0.57697
C    -1.05326   1.41980  -0.57340
C     0.26545   2.03561  -0.68901
C     0.68822   2.95065   0.42097
O     0.92457   1.86500  -1.70557
H     2.35798  -2.82767  -2.06136
H     3.43408  -2.13756  -0.79568
H     2.81701  -1.08805  -2.11349
H    -1.98993  -0.88432   2.98833
H    -3.14796   0.22054   2.20207
H    -1.40270   0.66164   2.31074
H    -2.65120  -2.24854  -0.58872
H    -3.00094  -2.69408   1.11322
H    -3.90447  -1.36318   0.35942
H    -3.18905   0.69285  -0.62563
H     1.71720   3.28903   0.25065
H     0.00985   3.82784   0.42520
H     0.59218   2.45601   1.39299
27

C     2.57549  -1.93479  -1.46127
O     1.39222  -1.68048  -0.70454
C     1.44483  -0.61534   0.14023
O     2.45188   0.09448   0.23410
N     0.36452  -0.36272   0.89925
O    -0.70593  -1.17866   0.47107
C    -1.83892  -1.05628   1.01281
C    -2.10179  -0.15340   2.16402
C    -2.91539  -1.88132   0.40825
C    -2.18639   1.02547  -0.59674
C    -1.06152   1.43206  -0.58223
C     0.26534   2.03628  -0.68923
C     0.68881   2.94987   0.42146
O     0.92553   1.86397  -1.70443
H     2.35808  -2.82746  -2.06172
H     3.43404  -2.13748  -0.79593
H     2.81702  -1.08787  -2.11359
H    -1.98948  -0.88189   2.99077
H    -3.14760   0.21978   2.20028
H    -1.40183   0.66180   2.30857
H    -2.65009  -2.24906  -0.58831
H    -3.00398  -2.69619   1.11246
H    -3.90292  -1.36183   0.35960
H    -3.19213   0.68680  -0.62329
H     1.71744   3.28867   0.25101
H     0.01012   3.82770   0.42540
H     0.59207   2.45557   1.39299
27

C     2.57504  -1.93423  -1.46176
O     1.39183  -1.68141  -0.70540
C     1.44470  -0.61723   0.14340
O     2.45319   0.09280   0.23475
N     0.37126  -0.36907   0.90815
O    -0.70805  -1.17672   0.46897
C    -1.83180  -1.07778   1.02895
C    -2.09947  -0.15340   2.16372
C    -2.91424  -1.88534   0.40966
C    -2.19524   1.05072  -0.61652
C    -1.06978   1.44433  -0.59106
C     0.26522   2.03695  -0.68945
C     0.68940   2.94909   0.42195
O     0.92649   1.86295  -1.70330
H     2.35819  -2.82724  -2.06207
H     3.43401  -2.13740  -0.79618
H     2.81703  -1.08769  -2.11369
H    -1.98903  -0.87947   2.99322
H    -3.14723   0.21902   2.19849
H    -1.40097   0.66196   2.30640
H    -2.64899  -2.24958  -0.58790
H    -3.00702  -2.69831   1.11170
H    -3.90138  -1.36048   0.35979
H    -3.19520   0.68075  -0.62095
H     1.71769   3.28831   0.25136
H     0.01039   3.82756   0.42560
H     0.59196   2.45513   1.39299
27

C     2.57549  -1.93479  -1.46127
O     1.39222  -1.68048  -0.70454
C     1.44483  -0.61534   0.14023
O     2.45188   0.09448   0.23410
N     0.36452  -0.36272   0.89925
O    -0.70593  -1.17866   0.47107
C    -1.83892  -1.05628   1.01281
C    -2.10179  -0.15340   2.16402
C    -2.91539  -1.88132   0.40825
C    -2.18639   1.02547  -0.59674
C    -1.06152   1.43206  -0.58223
C     0.26534   2.03628  -0.68923
C     0.68881   2.94987   0.42146
O     0.92553   1.86397  -1.70443
H     2.35808  -2.82746  -2.06172
H     3.43404  -2.13748  -0.79593
H     2.81702  -1.08787  -2.11359
H    -1.98948  -0.88189   2.99077
H    -3.14760   0.21978   2.20028
H    -1.40183   0.66180   2.30857
H    -2.65009  -2.24906  -0.58831
H    -3.00398  -2.69619   1.11246
H    -3.90292  -1.36183   0.35960
H    -3.19213   0.68680  -0.62329
H     1.71744   3.28867   0.25101
H     0.01012   3.82770   0.42540
H     0.59207   2.45557   1.39299
27

C     2.57593  -1.93536  -1.46078
O     1.39261  -1.67954  -0.70367
C     1.44496  -0.61345   0.13706
O     2.45056   0.09617   0.23345
N     0.35778  -0.35636   0.89034
O    -0.70381  -1.18060   0.47317
C    -1.84604  -1.03478   0.99667
C    -2.10410  -0.15340   2.16431
C    -2.91654  -1.87729   0.40685
C    -2.17755   1.00021  -0.57697
C    -1.05326   1.41980  -0.57340
C     0.26545   2.03561  -0.68901
C     0.68822   2.95065   0.42097
O     0.92457   1.86500  -1.70557
H     2.35798  -2.82767  -2.06136
H     3.43408  -2.13756  -0.79568
H     2.81701  -1.08805  -2.11349
H    -1.98993  -0.88432   2.98833
H    -3.14796   0.22054   2.20207
H    -1.40270   0.66164   2.31074
H    -2.65120  -2.24854  -0.58872
H    -3.00094  -2.69408   1.11322
H    -3.90447  -1.36318   0.35942
H    -3.18905   0.69285  -0.62563
H     1.71720   3.28903   0.25065
H     0.00985   3.82784   0.42520
H     0.59218   2.45601   1.39299
27

C     2.57638  -1.93592  -1.46030
O     1.39300  -1.67861  -0.70280
C     1.44509  -0.61157   0.13389
O     2.44925   0.09786   0.23280
N     0.35104  -0.35001   0.88144
O    -0.70168  -1.18254   0.47527
C    -1.85316  -1.01328   0.98053
C    -2.10642  -0.15339   2.16460
C    -2.91769  -1.87327   0.40545
C    -2.16870   0.97496  -0.55720
C    -1.04500   1.40753  -0.56456
C     0.26557   2.03494  -0.68879
C     0.68763   2.95142   0.42048
O     0.92360   1.86602  -1.70670
H     2.35787  -2.82789  -2.06101
H     3.43412  -2.13764  -0.79542
H     2.81700  -1.08823  -2.11339
H    -1.99038  -0.88675   2.98588
H    -3.14833   0.22130   2.20386
H    -1.40357   0.66148   2.31291
H    -2.65230  -2.24802  -0.58914
H    -2.99790  -2.69196   1.11398
H    -3.90602  -1.36454   0.35923
H    -3.18597   0.69890  -0.62798
H     1.71695   3.28939   0.25029
H     0.00958   3.82798   0.42500
H     0.59230   2.45645   1.39299
27

C     2.57683  -1.93649  -1.45981
O     1.39339  -1.67768  -0.70193
C     1.44522  -0.60968   0.13071
O     2.44794   0.09954   0.23214
N     0.34430  -0.34366   0.87254
O    -0.69956  -1.18448   0.47737
C    -1.86028  -0.99178   0.96439
C    -2.10873  -0.15339   2.16489
C    -2.91884  -1.86924   0.40404
C    -2.15986   0.94971  -0.53743
C    -1.03673   1.39527  -0.55573
C     0.26569   2.03427  -0.68858
C     0.68704   2.95220   0.42000
O     0.92264   1.86705  -1.70783
H     2.35777  -2.82811  -2.06065
H     3.43416  -2.13772  -0.79517
H     2.81699  -1.08841  -2.11328
H    -1.99083  -0.88918   2.98343
H    -3.14870   0.22205   2.20565
H    -1.40443   0.66132   2.31508
H    -2.65340  -2.24749  -0.58955
H    -2.99486  -2.68984   1.11474
H    -3.90756  -1.36589   0.35905
H    -3.18289   0.70495  -0.63032
H     1.71671   3.28974   0.24994
H     0.00931   3.82812   0.42480
H     0.59241   2.45689   1.39299
27

C     2.57728  -1.93705  -1.45932
O     1.39378  -1.67674  -0.70106
C     1.44535  -0.60780   0.12754
O     2.44662   0.10123   0.23149
N     0.33757  -0.33730   0.86363
O    -0.69743  -1.18642   0.47947
C    -1.86740  -0.97028   0.94825
C    -2.11105  -0.15339   2.16518
C    -2.91999  -1.86522   0.40264
C    -2.15102   0.92446  -0.51765
C    -1.02847   1.38300  -0.54690
C     0.26581   2.03360  -0.68836
C     0.68645   2.95297   0.41951
O     0.92168   1.86807  -1.70896
H     2.35766  -2.82833  -2.06030
H     3.43419  -2.13780  -0.79492
H     2.81698  -1.08859  -2.11318
H    -1.99127  -0.89160   2.98099
H    -3.14907   0.22281   2.20744
H    -1.40530   0.66116   2.31725
H    -2.65451  -2.24697  -0.58996
H    -2.99182  -2.68772   1.11550
H    -3.90911  -1.36724   0.35886
H    -3.17981   0.71100  -0.63267
H     1.71646   3.29010   0.24958
H     0.00904   3.82826   0.42460
H     0.59252   2.45733   1.39299
27

C     2.57773  -1.93761  -1.45884
O     1.39417  -1.67581  -0.70020
C     1.44548  -0.60591   0.12437
O     2.44531   0.10291   0.23084
N     0.33083  -0.33095   0.85473
O    -0.69531  -1.18837   0.48157
C    -1.87452  -0.94878   0.93211
C    -2.11336  -0.15338   2.16547
C    -2.92114  -1.86119   0.40124
C    -2.14217   0.89921  -0.49788
C    -1.02021   1.37074  -0.53806
C     0.26593   2.03293  -0.68814
C     0.68586   2.95375   0.41902
O     0.92071   1.86910  -1.71009
H     2.35756  -2.82855  -2.05994
H     3.43423  -2.13788  -0.79467
H     2.81697  -1.08877  -2.11308
H    -1.99172  -0.89403   2.97854
H    -3.14943   0.22357   2.20923
H    -1.40617   0.66100   2.31942
H    -2.65561  -2.24645  -0.59037
H    -2.98878  -2.68560   1.11626
H    -3.91065  -1.36859   0.35867
H    -3.17673   0.71705  -0.63501
H     1.71622   3.29046   0.24923
H     0.00878   3.82840   0.42439
H     0.59263   2.45777   1.39299
27

C     2.57818  -1.93818  -1.45835
O     1.39456  -1.67488  -0.69933
C     1.44561  -0.60402   0.12120
O     2.44400   0.10460   0.23019
N     0.32409  -0.32459   0.84582
O    -0.69318  -1.19031   0.48367
C    -1.88164  -0.92728   0.91597
C    -2.11568  -0.15338   2.16577
C    -2.92229  -1.85717   0.39984
C    -2.13333   0.87396  -0.47811
C    -1.01195   1.35847  -0.52923
C     0.26604   2.03226  -0.68792
C     0.68526   2.95453   0.41853
O     0.91975   1.87012  -1.71122
H     2.35745  -2.82877  -2.05959
H     3.43427  -2.13796  -0.79442
H     2.81696  -1.08894  -2.11298
H    -1.99217  -0.89646   2.97610
H    -3.14980   0.22433   2.21102
H    -1.40703   0.66084   2.32159
H    -2.65672  -2.24593  -0.59078
H    -2.98573  -2.68348   1.11701
H    -3.91220  -1.36994   0.35849
H    -3.17365   0.72310  -0.63735
H     1.71597   3.29082   0.24887
H     0.00851   3.82854   0.42419
H     0.59275   2.45820   1.39299
27

C     2.57862  -1.93874  -1.45786
O     1.39494  -1.67394  -0.69846
C     1.44574  -0.60214   0.11803
O     2.44268   0.10629   0.22953
N     0.31735  -0.31824   0.83692
O    -0.69106  -1.19225   0.48576
C    -1.88876  -0.90578   0.89983
C    -2.11799  -0.15337   2.16606
C    -2.92344  -1.85314   0.39843
C    -2.12449   0.84871  -0.45834
C    -1.00369   1.34621  -0.52040
C     0.26616   2.03159  -0.68770
C     0.68467   2.95530   0.41804
O     0.91878   1.87115  -1.71235
H     2.35734  -2.82899  -2.05923
H     3.43431  -2.13804  -0.79416
H     2.81694  -1.08912  -2.11287
H    -1.99262  -0.89889   2.97365
H    -3.15017   0.22509   2.21281
H    -1.40790   0.66069   2.32377
H    -2.65782  -2.24541  -0.59119
H    -2.98269  -2.68136   1.11777
H    -3.91374  -1.37130   0.35830
H    -3.17058   0.72915  -0.63970
H     1.71573   3.29117   0.24851
H     0.00824   3.82868   0.42399
H     0.59286   2.45864   1.39299
27

C     2.57907  -1.93931  -1.45738
O     1.39533  -1.67301  -0.69759
C     1.44587  -0.60025   0.11485
O     2.44137   0.10797   0.22888
N     0.31061  -0.31189   0.82802
O    -0.68894  -1.19419   0.48786
C    -1.89588  -0.88428   0.88368
C    -2.12031  -0.15337   2.16635
C    -2.92459  -1.84912   0.39703
C    -2.11564   0.82345  -0.43856
C    -0.99543   1.33394  -0.51156
C     0.26628   2.03092  -0.68748
C     0.68408   2.95608   0.41755
O     0.91782   1.87217  -1.71348
H     2.35724  -2.82920  -2.05888
H     3.43434  -2.13812  -0.79391
H     2.81693  -1.08930  -2.11277
H    -1.99307  -0.90131   2.97120
H    -3.15054   0.22585   2.21461
H    -1.40877   0.66053   2.32594
H    -2.65893  -2.24489  -0.59161
H    -2.97965  -2.67924   1.11853
H    -3.91529  -1.37265   0.35812
H    -3.16750   0.73520  -0.64204
H     1.71548   3.29153   0.24816
H     0.00797   3.82882   0.42379
H     0.59297   2.45908   1.39299
27

C     2.57952  -1.93987  -1.45689
O     1.39572  -1.67207  -0.69673
C     1.44600  -0.59836   0.11168
O     2.44005   0.10966   0.22823
N     0.30387  -0.30553   0.81911
O    -0.68681  -1.19613   0.48996
C    -1.90300  -0.86278   0.86754
C    -2.12262  -0.15337   2.16664
C    -2.92574  -1.84510   0.39563
C    -2.10680   0.79820  -0.41879
C    -0.98717   1.32168  -0.50273
C     0.26640   2.03025  -0.68727
C     0.68349   2.95685   0.41707
O     0.91686   1.87320  -1.71461
H     2.35713  -2.82942  -2.05852
H     3.43438  -2.13820  -0.79366
H     2.81692  -1.08948  -2.11267
H    -1.99352  -0.90374   2.96876
H    -3.15090   0.22660   2.21640
H    -1.40963   0.66037   2.32811
H    -2.66003  -2.24437  -0.59202
H    -2.97661  -2.67712   1.11929
H    -3.91684  -1.37400   0.35793
H    -3.16442   0.74125  -0.64438
H     1.71524   3.29189   0.24780
H     0.00770   3.82896   0.42359
H     0.59308   2.45952   1.39299
27

C     2.57997  -1.94043  -1.45641
O     1.39611  -1.67114  -0.69586
C     1.44613  -0.59648   0.10851
O     2.43874   0.11135   0.22758
N     0.29713  -0.29918   0.81021
O    -0.68469  -1.19807   0.49206
C    -1.91012  -0.84128   0.85140
C    -2.12494  -0.15336   2.16693
C    -2.92689  -1.84107   0.39423
C    -2.09795   0.77295  -0.39902
C    -0.97890   1.30941  -0.49390
C     0.26652   2.02958  -0.68705
C     0.68290   2.95763   0.41658
O     0.91589   1.87422  -1.71574
H     2.35703  -2.82964  -2.05817
H     3.43442  -2.13828  -0.79341
H     2.81691  -1.08966  -2.11257
H    -1.99397  -0.90617   2.96631
H    -3.15127   0.22736   2.21819
H    -1.41050   0.66021   2.33028
H    -2.66113  -2.24385  -0.59243
H    -2.97357  -2.67500   1.12005
H    -3.91838  -1.37535   0.35774
H    -3.16134   0.74730  -0.64673
H     1.71499   3.29225   0.24745
H     0.00743   3.82910   0.42339
H     0.59319   2.45996   1.39299
27

C     2.58042  -1.94100  -1.45592
O     1.39650  -1.67021  -0.69499
C     1.44626  -0.59459   0.10534
O     2.43743   0.11303   0.22692
N     0.29040  -0.29282   0.80131
O    -0.68256  -1.20001   0.49416
C    -1.91724  -0.81978   0.83526
C    -2.12725  -0.15336   2.16722
C    -2.92804  -1.83705   0.39282
C    -2.08911   0.74770  -0.37925
C    -0.97064   1.29715  -0.48506
C     0.26663   2.02891  -0.68683
C     0.68231   2.95840   0.41609
O     0.91493   1.87525  -1.71688
H     2.35692  -2.82986  -2.05781
H     3.43446  -2.13836  -0.79316
H     2.81690  -1.08984  -2.11246
H    -1.99441  -0.90860   2.96386
H    -3.15164   0.22812   2.21998
H    -1.41137   0.66005   2.33245
H    -2.66224  -2.24333  -0.59284
H    -2.97053  -2.67288   1.12081
H    -3.91993  -1.37670   0.35756
H    -3.15826   0.75335  -0.64907
H     1.71475   3.29261   0.24709
H     0.00716   3.82924   0.42319
H     0.59331   2.46040   1.39299
27

C     2.58086  -1.94156  -1.45543
O     1.39689  -1.66927  -0.69412
C     1.44639  -0.59270   0.10217
O     2.43611   0.11472   0.22627
N     0.28366  -0.28647   0.79240
O    -0.68044  -1.20195   0.49626
C    -1.92436  -0.79828   0.81912
C    -2.12957  -0.15335   2.16752
C    -2.92919  -1.83302   0.39142
C    -2.08027   0.72245  -0.35947
C    -0.96238   1.28488  -0.47623
C     0.26675   2.02824  -0.68661
C     0.68172   2.95918   0.41560
O     0.91397   1.87627  -1.71801
H     2.35682  -2.83008  -2.05746
H     3.43449  -2.13844  -0.79290
H     2.81689  -1.09002  -2.11236
H    -1.99486  -0.91102   2.96142
H    -3.15200   0.22888   2.22177
H    -1.41223   0.65989   2.33462
H    -2.66334  -2.24281  -0.59325
H    -2.96749  -2.67076   1.12157
H    -3.92147  -1.37806   0.35737
H    -3.15518   0.75940  -0.65142
H     1.71450   3.29296   0.24674
H     0.00689   3.82938   0.42299
H     0.59342   2.46084   1.39299
27

C     2.58131  -1.94213  -1.45495
O     1.39728  -1.66834  -0.69326
C     1.44652  -0.59082   0.09899
O     2.43480   0.11641   0.22562
N     0.27692  -0.28011   0.78350
O    -0.67831  -1.20389   0.49836
C    -1.93148  -0.77678   0.80298
C    -2.13188  -0.15335   2.16781
C    -2.93034  -1.82900   0.39002
C    -2.07142   0.69720  -0.33970
C    -0.95412   1.27262  -0.46740
C     0.26687   2.02757  -0.68639
C     0.68112   2.95996   0.41511
O     0.91300   1.87730  -1.71914
H     2.35671  -2.83030  -2.05710
H     3.43453  -2.13852  -0.79265
H     2.81688  -1.09020  -2.11226
H    -1.99531  -0.91345   2.95897
H    -3.15237   0.22964   2.22356
H    -1.41310   0.65973   2.33679
H    -2.66445  -2.24229  -0.59366
H    -2.96445  -2.66864   1.12233
H    -3.92302  -1.37941   0.35718
H    -3.15210   0.76545  -0.65376
H     1.71425   3.29332   0.24638
H     0.00662   3.82953   0.42279
H     0.59353   2.46127   1.39299
27

C     2.58176  -1.94269  -1.45446
O     1.39767  -1.66741  -0.69239
C     1.44665  -0.58893   0.09582
O     2.43349   0.11809   0.22497
N     0.27018  -0.27376   0.77460
O    -0.67619  -1.20583   0.50046
C    -1.93860  -0.75528   0.78684
C    -2.13420  -0.15335   2.16810
C    -2.93149  -1.82497   0.38862
C    -2.06258   0.67195  -0.31993
C    -0.94586   1.26035  -0.45856
C     0.26699   2.02690  -0.68618
C     0.68053   2.96073   0.41462
O     0.91204   1.87832  -1.72027
H     2.35661  -2.83052  -2.05675
H     3.43457  -2.13860  -0.79240
H     2.81687  -1.09038  -2.11216
H    -1.99576  -0.91588   2.95652
H    -3.15274   0.23040   2.22535
H    -1.41397   0.65957   2.33896
H    -2.66555  -2.24176  -0.59407
H    -2.96141  -2.66652   1.12309
H    -3.92457  -1.38076   0.35700
H    -3.14903   0.77150  -0.65610
H     1.71401   3.29368   0.24602
H     0.00635   3.82967   0.42258
H     0.59364   2.46171   1.39299
27

C     2.58221  -1.94325  -1.45397
O     1.39806  -1.66647  -0.69152
C     1.44678  -0.58704   0.09265
O     2.43217   0.11978   0.22431
N     0.26344  -0.26741   0.76569
O    -0.67406  -1.20777   0.50256
C    -1.94572  -0.73378   0.77070
C    -2.13651  -0.15334   2.16839
C    -2.93264  -1.82095   0.38721
C    -2.05373   0.64669  -0.30016
C    -0.93760   1.24809  -0.44973
C     0.26710   2.02623  -0.68596
C     0.67994   2.96151   0.41413
O     0.91108   1.87935  -1.72140
H     2.35650  -2.83073  -2.05639
H     3.43461  -2.13868  -0.79215
H     2.81686  -1.09055  -2.11205
H    -1.99621  -0.91831   2.95408
H    -3.15311   0.23115   2.22714
H    -1.41483   0.65942   2.34113
H    -2.66666  -2.24124  -0.59449
H    -2.95837  -2.66441   1.12384
H    -3.92611  -1.38211   0.35681
H    -3.14595   0.77755  -0.65845
H     1.71376   3.29404   0.24567
H     0.00608   3.82981   0.42238
H     0.59376   2.46215   1.39299
27

C     2.58266  -1.94382  -1.45349
O     1.39845  -1.66554  -0.69065
C     1.44691  -0.58516   0.08948
O     2.43086   0.12147   0.22366
N     0.25670  -0.26105   0.75679
O    -0.67194  -1.20971   0.50466
C    -1.95284  -0.71227   0.75456
C    -2.13883  -0.15334   2.16868
C    -2.93379  -1.81692   0.38581
C    -2.04489   0.62144  -0.28038
C    -0.92934   1.23582  -0.44090
C     0.26722   2.02556  -0.68574
C     0.67935   2.96228   0.41365
O     0.91011   1.88037  -1.72253
H     2.35640  -2.83095  -2.05604
H     3.43464  -2.13876  -0.79190
H     2.81685  -1.09073  -2.11195
H    -1.99666  -0.92074   2.95163
H    -3.15347   0.23191   2.22893
H    -1.41570   0.65926   2.34330
H    -2.66776  -2.24072  -0.59490
H    -2.95533  -2.66229   1.12460
H    -3.92766  -1.38346   0.35663
H    -3.14287   0.78360  -0.66079
H     1.71352   3.29439   0.24531
H     0.00581   3.82995   0.42218
H     0.59387   2.46259   1.39299
27

C     2.58310  -1.94438  -1.45300
O     1.39884  -1.66460  -0.68979
C     1.44704  -0.58327   0.08631
O     2.42954   0.12315   0.22301
N     0.24997  -0.25470   0.74789
O    -0.66982  -1.21165   0.50675
C    -1.95996  -0.69077   0.73842
C    -2.14114  -0.15334   2.16897
C    -2.93493  -1.81290   0.38441
C    -2.03605   0.59619  -0.26061
C    -0.92107   1.22356  -0.43206
C     0.26734   2.02489  -0.68552
C     0.67876   2.96306   0.41316
O     0.90915   1.88140  -1.72366
H     2.35629  -2.83117  -2.05568
H     3.43468  -2.13884  -0.79164
H     2.81684  -1.09091  -2.11185
H    -1.99710  -0.92316   2.94918
H    -3.15384   0.23267   2.23072
H    -1.41656   0.65910   2.34547
H    -2.66886  -2.24020  -0.59531
H    -2.95229  -2.66017   1.12536
H    -3.92920  -1.38482   0.35644
H    -3.13979   0.78965  -0.66314
H     1.71327   3.29475   0.24496
H     0.00554   3.83009   0.42198
H     0.59398   2.46303   1.39299
27

C     2.58355  -1.94495  -1.45251
O     1.39923  -1.66367  -0.68892
C     1.44717  -0.58139   0.08314
O     2.42823   0.12484   0.22236
N     0.24323  -0.24834   0.73898
O    -0.66769  -1.21359   0.50885
C    -1.96708  -0.66927   0.72228
C    -2.14346  -0.15333   2.16927
C    -2.93608  -1.80887   0.38301
C    -2.02720   0.57094  -0.24084
C    -0.91281   1.21129  -0.42323
C     0.26746   2.02422  -0.68530
C     0.67817   2.96384   0.41267
O     0.90819   1.88242  -1.72479
H     2.35619  -2.83139  -2.05533
H     3.43472  -2.13892  -0.79139
H     2.81683  -1.09109  -2.11175
H    -1.99755  -0.92559   2.94674
H    -3.15421   0.23343   2.23251
H    -1.41743   0.65894   2.34764
H    -2.66997  -2.23968  -0.59572
H    -2.94925  -2.65805   1.12612
H    -3.93075  -1.38617   0.35625
H    -3.13671   0.79570  -0.66548
H     1.71303   3.29511   0.24460
H     0.00527   3.83023   0.42178
H     0.59409   2.46347   1.39299
