12

C 2.783944546 -0.505935241 -0.720567368
N 0.656302771 -1.045748378 0.973678324
C -1.973079998 -0.363370070 0.088596200
N -3.203085913 -2.348397124 -0.188642024
C -2.657986363 2.336204063 -0.221075431
O -1.247570221 4.051223476 0.277152600
H 4.476967490 -1.443522613 -0.020384514
H 3.115755074 1.521101804 -0.854556244
H 2.328196273 -1.249669234 -2.586174105
H 1.020460554 -0.464302307 2.768312561
H -0.636037197 -2.995058550 0.713148549
H -4.598147992 2.636686088 -0.927126301

