19

C -5.165806281 0.369129501 -0.721841440
C -2.677873160 1.224212545 0.444764996
C -0.739673935 -0.918541917 0.603485228
C 1.644489921 0.174329918 1.765205683
C 4.356982977 -1.753611155 0.715012064
C 3.600112327 0.868654962 -0.117784664
O 3.051407821 0.941658843 -2.726465596
H -4.888998461 -0.322395743 -2.647547081
H -6.012388788 -1.162124459 0.374357920
H -6.528133655 1.916026369 -0.797870546
H -2.995993208 1.982811520 2.339053052
H -1.901121664 2.787112917 -0.669385477
H -0.488933583 -1.728505350 -1.288104317
H -1.507206043 -2.393910913 1.829317439
H 2.955132794 -2.019519148 2.485387944
H 4.025373157 -3.173576347 -0.725666454
H 6.127264502 -1.893947489 1.738766128
H 4.906310828 2.366284647 0.415801182
H 2.120663110 2.459519936 -3.062115406

