12

N -4.150064864 -0.842903135 -0.824798992
C -1.725738016 -0.384418803 -0.362319628
C 0.337947943 -1.941817597 -0.965635555
C 2.211107236 -0.472315672 -0.029326395
O 4.693672590 -0.932240372 -0.025838679
C 1.363058887 1.962611349 1.141764418
O -1.308872370 1.834260301 0.814636309
H -5.505560236 0.384741833 -0.325113263
H -4.587791537 -2.466203047 -1.698192914
H 1.787167078 2.098382597 3.155739865
H 4.900294035 -2.550610027 -0.841859175
H 2.081504886 3.635825089 0.173744198

