14

C -2.898886400 -1.618292535 -0.580741014
N -3.423639761 1.074774760 -0.110331112
C -0.865692079 0.109178058 0.173045037
C 0.907839548 0.111118220 2.384599930
C 3.452173983 -0.425957043 -0.798697357
C 1.281451026 1.179596848 -1.323176992
O 2.445030461 2.348051965 0.899262516
H -3.512922158 -2.995495077 0.808736679
H -3.127122665 -2.210741196 -2.529879561
H -4.234676066 1.318237474 1.607107794
H 0.213022760 0.891052582 4.166095827
H 3.344440583 -2.413165105 -0.363596648
H 5.285692604 0.331038330 -1.313708235
H 1.103077094 2.346362455 -3.001000680

