19

C 5.231549815 0.140537949 0.235567835
C 2.655937408 0.322565743 -0.981023444
C 0.510720916 1.087050912 0.406338322
C -1.864745986 2.007715503 -0.842399258
C -4.065504212 0.258344666 -0.178794566
C -2.996819094 -2.416555841 -0.427598932
O -0.688684740 -2.390070082 0.859814199
H 6.222398304 1.954332629 0.276404401
H 5.082869924 -0.541686932 2.178366502
H 6.430167645 -1.192673261 -0.783668895
H 2.605233052 0.739061532 -2.992402540
H 1.256505923 -1.809302990 -0.528852026
H 0.678980222 1.429130874 2.422696695
H -2.223520166 3.944789773 -0.219451778
H -1.585712012 2.049517208 -2.888550619
H -5.701862699 0.584594657 -1.395259442
H -4.651835565 0.567778003 1.777603458
H -4.286833755 -3.829228221 0.365939455
H -2.738782586 -2.880164052 -2.439654682

