11

C 2.705686470 1.263384205 -1.855754197
N 0.514124955 1.005604983 -0.836987763
C -1.214383852 2.307392731 0.910949395
H -0.555150135 2.403613201 2.858381519
H -2.062177410 4.031640018 0.176479576
C -1.653106846 -0.119949137 -0.325013939
C -2.883936607 -2.463230394 -0.699478969
O -4.891462022 -3.079144597 0.230105109
H -1.832971602 -3.753958937 -1.975015096
H 3.776425456 2.951609532 -1.456554636
H 3.409073714 -0.202569324 -3.089588811

