13

C 2.949131988 0.844296279 -1.098203566
N 0.452777888 1.006665497 -0.956337574
C -1.123263923 2.134164240 0.997037342
C -1.215438395 -0.534633170 0.207066608
C -2.972351091 -2.433985125 -0.659658849
O -4.907814162 -2.999545969 0.406614317
H 4.032463712 2.573859894 -0.932541613
H 3.725748973 -0.681261064 -2.221722791
H 2.781406587 -1.065918011 1.680202230
H -0.188364536 2.564952084 2.781824840
H -2.484070861 3.514781328 0.332987507
H 1.240494028 -1.636887081 1.897166713
H -2.359938985 -3.418773527 -2.405543122

