14

C -3.175827540 -1.134529866 0.369614273
C -1.264665874 0.754311262 -0.550511027
O -0.061007332 2.180051873 1.471155870
C 2.346989126 1.685167467 0.470289678
C 2.957951737 -1.662247961 0.105027444
C 1.346925444 -0.119897945 -1.530346949
H -4.670066679 -0.179683569 1.422182616
H -2.313809334 -2.542696194 1.602205202
H -4.033846197 -2.098200559 -1.240974094
H -2.127749734 2.098944809 -1.861896487
H 3.543412341 3.269567461 -0.058478803
H 3.738191950 0.478446359 1.726980019
H 1.851366234 -2.375669481 1.713523223
H 1.834324740 0.096002207 -3.507663674

