9

C -0.472227082 3.145716814 -0.028064795
H -2.471979505 3.186924579 0.325503870
C 1.647163619 4.257022437 -0.362262728
H 2.775045334 5.940730260 -0.497688307
C 1.716617990 1.416316830 -0.635138878
C 2.844023758 -0.114386029 1.425863632
O 3.840638841 -2.132775159 1.136217183
H 2.699860785 0.767065969 3.332404389
H 1.871663763 0.554962183 -2.496824339

