12

O -3.269191047 -2.831772380 0.986843574
C -1.722994663 -1.308096788 0.347580180
C 0.975933712 -1.805440352 -0.505293377
C 2.290716125 0.717703507 0.019455543
C 0.438238600 2.809310207 0.371348191
C -2.048581832 1.559029798 0.296881435
H 0.929405745 -2.239236773 -2.526554493
H 1.774209944 -3.438726938 0.457590794
H 3.160335868 0.730237267 1.917953738
H 3.846401731 1.231479203 -1.232328824
H -3.546128577 2.332286339 1.479335889
H -2.585553595 2.055019656 -1.667612818

