12

O -3.421136894 -2.570402092 -1.070923706
C -1.749518216 -1.213333958 -0.370772713
C 0.993898280 -1.991857885 0.074155272
C 2.301993425 0.530594353 0.304991063
C 0.715074803 2.655724285 0.510188486
C -1.919240377 1.611535063 0.191125351
H 1.695133561 -3.225604041 -1.418654157
H 1.121368339 -3.041026913 1.851139958
H 4.327879494 0.669686114 0.623037960
H 2.108282740 1.979224499 -1.541459011
H -2.854424754 1.856221866 2.025278409
H -3.100678518 2.618683631 -1.164310022

