16

C 2.877598182 -1.509106880 1.458413314
C 2.208533618 0.263023439 -0.670996960
C -0.029868312 0.026216397 -2.355484201
C -2.324491540 -0.981799517 -0.916536559
C 0.192011216 2.276594523 -0.521296561
C -2.059867956 1.298754266 0.847985629
N -3.349575007 2.266104521 2.594648204
H 1.224471135 -2.115631526 2.527991687
H 3.820145404 -3.195676732 0.732747503
H 4.156431219 -0.581890950 2.784035857
H 3.849988828 0.969137917 -1.681230940
H 0.123280630 0.083794841 -4.391736874
H -4.073997246 -0.846267169 -1.999344734
H -2.182503642 -2.867789483 -0.092953417
H -4.848701904 1.142156649 3.038009039
H 0.594627477 4.246228491 -0.885217202

