16

C 2.735386389 -1.490481985 1.537253123
C 2.092870209 0.199321017 -0.661700113
C -0.277019545 0.048113863 -2.169449433
C -2.493784620 -1.171898141 -0.862710621
C 0.236966932 2.367453802 -0.524214165
C -1.800625821 1.952255121 1.286645222
N -3.299613634 2.502291525 2.916600069
H 1.080292137 -1.971676385 2.663065739
H 3.571313600 -3.250661526 0.858622878
H 4.100189134 -0.573556256 2.781501659
H 3.718649366 0.731578840 -1.793036927
H -0.160897292 0.185780241 -4.208791883
H -4.236549919 -0.985211682 -1.952355314
H -2.215151514 -3.130909846 -0.284252793
H -3.690322598 0.461100110 1.626453846
H 0.722826498 4.272180251 -1.088650490

