13

O -3.306012870 -1.890029558 0.875328001
C -1.379232920 -0.413166129 0.234227282
C -1.707998344 2.242518925 1.043160587
N 1.982661155 0.538046507 -2.754679812
C 3.298370572 -0.189966060 -0.690990074
C 0.589770692 -1.312078706 -1.232072369
H -3.023149745 -3.581012430 0.257593462
H -3.323115345 3.048756233 0.040008885
H -2.126411997 2.316697988 3.061525660
H -0.043668850 3.343074538 0.564401119
H 3.686244721 1.097940743 0.899431930
H 4.529139919 -1.872840911 -0.665361721
H 0.565693503 -3.321517960 -1.729145494

