12

O 4.881232367 -0.102743899 -2.538434105
C 2.756531139 -0.662096823 -2.035520045
C -1.196753464 -0.436726309 2.489230891
C -1.685288504 0.340625326 -0.255946188
C 0.698076868 1.336785779 -1.450783526
O 1.086487944 3.517396709 -1.922971358
H 0.271932950 -1.880687829 2.633971062
H 2.130009658 -2.664450246 -1.969100291
H -2.910009404 -1.207635546 3.332817577
H -0.600028768 1.185850783 3.611396014
H -3.121159861 1.812097706 -0.363356936
H -2.348252862 -1.294190898 -1.336740671

