11

C -2.941649674 -0.788272967 -1.539933416
C -0.374859737 -0.420792384 -0.644583276
O -0.918716812 -2.512706920 -2.090174534
C 0.894739608 -0.419540572 1.939901226
O 0.616227123 -1.494982689 3.883077384
C 2.666480058 1.582013308 0.856565722
O 1.328911744 1.424800831 -1.511017091
H -4.388729885 -1.506057637 -0.276371879
H -3.566212492 0.338534760 -3.135688132
H 2.522453769 3.444573958 1.732098815
H 4.640653205 1.006101659 0.683726609

