11

N 3.254265744 -0.110900335 -1.220648805
C 0.799541706 -0.346621351 -0.434202787
C -0.507324379 1.390983521 1.145187845
N -2.023288301 -0.074556158 3.043824671
C -3.247165967 -0.327355631 0.954284556
N -3.074104414 -2.156446983 -0.900903308
N -0.703010470 -2.069921469 -1.579940751
H 4.520161584 0.390126229 0.102129417
H 3.841595042 -1.502377774 -2.379039562
H 0.015493524 3.333763102 1.555572997
H -2.857752448 1.618543660 -0.323146040

