12

C -3.909077597 0.237595568 -0.066485365
C -1.436260490 0.718610821 0.050494446
O -0.422791638 3.040860050 0.394282588
N 0.418724664 -1.101792647 -0.170059931
C 2.981409115 -0.740508589 -0.022215167
N 4.469127810 -2.604995513 -0.239988188
H -1.771450472 4.243022061 0.539878068
H -4.594035892 -1.664103313 -0.340772101
H -5.277358931 1.741927073 0.117168689
H -0.144572344 -2.898040804 -0.443075448
H 3.530799667 1.218242503 0.285595972
H 6.289076535 -2.031193914 -0.088188284

