12

C -3.857908065 0.779063235 -0.288152961
C -1.205652656 0.796112344 0.149250343
O -0.471040107 3.077453160 0.578317402
N 0.472017530 -1.101646401 0.007389415
C 3.081276624 -0.776753159 -0.008887287
N 4.499015927 -2.687880564 -0.019958248
H -2.648667027 3.363190144 -0.216454654
H -4.708710123 -0.664960778 -1.469993858
H -4.912109226 1.168078060 1.434524285
H -0.167012785 -2.893453532 -0.085268373
H 3.643382860 1.204477398 -0.009043417
H 6.343265225 -2.168677706 -0.054694324

