14

O 1.875190616 -1.976559286 2.510624612
C 2.223147323 -1.572373097 0.097608757
C -1.137470846 -1.057906196 -1.357390086
C -2.265307775 0.770913224 0.606092521
C 0.161069956 2.312023014 0.979861017
C 1.665106985 0.879376059 -0.813433461
H 1.406418577 -0.145968002 3.077643890
H 3.168365938 -3.023252111 -0.992827883
H -1.496070151 -0.551339748 -3.318033437
H -1.435403782 -3.086155254 -1.133625613
H -3.826168660 1.837022343 -0.227797244
H -3.023265698 -0.218629691 2.258217862
H 0.050784160 4.339718515 0.737238267
H 2.635043330 1.544396628 -2.504343257

