16

C -4.165592196 -1.409335672 -0.205767912
C -1.617168374 -0.431540711 -1.059405448
O -1.874219977 2.192155512 -1.505655749
C 0.424349831 -0.927957194 0.920401691
N 2.840784673 0.064318643 0.140864475
C 4.126342339 1.911684270 1.102137560
O 6.170832044 2.181119039 -0.153423576
H -4.095058754 -3.440358754 0.146335043
H -5.586350355 -1.043856441 -1.650827534
H -4.754055821 -0.456340589 1.527390756
H -1.058317986 -1.389048517 -2.815794594
H -0.297521807 2.808893522 -2.158929970
H -0.155297561 -0.053300651 2.704560156
H 0.595767625 -2.963415086 1.233309176
H 4.967279157 0.281288134 -1.205271442
H 3.621999872 3.087567881 2.713909462

