14

C -2.216530088 -2.213867294 0.866407284
C -0.651649963 -0.643575882 -0.937117472
C -1.294345138 2.741646163 0.707711523
O -2.912531111 2.812493734 2.272517760
C 1.710185230 0.342153812 -0.215415909
O 1.510039989 2.069184212 1.520474018
N 3.939641895 0.049510919 -1.359404742
H -1.693772108 -1.868121113 2.824612397
H -4.215719638 -1.733255516 0.686947496
H -1.989637003 -4.228876081 0.474154810
H -0.802162322 -1.215348066 -2.909467581
H -0.999784758 4.054106008 -0.859403297
H 4.246413779 -1.429991644 -2.501289063
H 5.363411068 1.247001225 -0.981523428

