15

C -5.005791133 -0.758887933 0.483910559
C -2.576895985 -0.239733623 -0.919606041
O -0.747169118 0.644578154 0.848364122
C 1.534784800 1.251885789 -0.193573302
N 3.515212998 0.003787786 0.632639677
C 6.004816788 0.247524548 0.290856138
H -4.713616948 -2.191223670 1.937349150
H -5.699998597 0.956354373 1.391499000
H -6.450059242 -1.437037658 -0.822332521
H -1.858176656 -1.948165451 -1.846302316
H -2.865817119 1.196810514 -2.385048230
H 1.736555848 2.904041460 -1.378348717
H 7.216770604 -1.127006828 1.165082580
H 2.998475458 -1.422011293 1.804862455
H 6.705598988 1.742647663 -0.898650509

